*Heading
** Job name: exp_uaniso Model name: square_expander
** Generated by: Abaqus/CAE 2021
*Preprint, echo=NO, model=NO, history=NO, contact=NO
**
** PARTS
**
*Part, name=ES_face
*Node
      1,           1.,           9., 0.00999999978
      2,           1.,           1., 0.00999999978
      3,           9.,           1., 0.00999999978
      4,           9.,           9., 0.00999999978
      5,           0.,          10., 0.00999999978
      6,           0.,           0., 0.00999999978
      7,          10.,           0., 0.00999999978
      8,          10.,          10., 0.00999999978
      9,           1.,          8.5, 0.00999999978
     10,           1.,           8., 0.00999999978
     11,           1.,          7.5, 0.00999999978
     12,           1.,           7., 0.00999999978
     13,           1.,          6.5, 0.00999999978
     14,           1.,           6., 0.00999999978
     15,           1.,          5.5, 0.00999999978
     16,           1.,           5., 0.00999999978
     17,           1.,          4.5, 0.00999999978
     18,           1.,           4., 0.00999999978
     19,           1.,          3.5, 0.00999999978
     20,           1.,           3., 0.00999999978
** ... 862 like lines cut
*Element, type=C3D8H
  1,  68, 145,   9,   1, 509, 586, 450, 442
  2, 145, 146,  10,   9, 586, 587, 451, 450
  3, 146, 147,  11,  10, 587, 588, 452, 451
  4, 147, 148,  12,  11, 588, 589, 453, 452
  5, 148, 149,  13,  12, 589, 590, 454, 453
  6, 149, 150,  14,  13, 590, 591, 455, 454
  7, 150, 151,  15,  14, 591, 592, 456, 455
  8, 151, 152,  16,  15, 592, 593, 457, 456
  9, 152, 153,  17,  16, 593, 594, 458, 457
 10, 153, 154,  18,  17, 594, 595, 459, 458
 11, 154, 155,  19,  18, 595, 596, 460, 459
 12, 155, 156,  20,  19, 596, 597, 461, 460
 13, 156, 157,  21,  20, 597, 598, 462, 461
 14, 157, 158,  22,  21, 598, 599, 463, 462
 15, 158, 159,  23,  22, 599, 600, 464, 463
 16, 159,  24,   2,  23, 600, 465, 443, 464
 17,  67, 160, 145,  68, 508, 601, 586, 509
 18, 160, 161, 146, 145, 601, 602, 587, 586
 19, 161, 162, 147, 146, 602, 603, 588, 587
 20, 162, 163, 148, 147, 603, 604, 589, 588
** ... 380 like lines cut
*Nset, nset=_PickedSet5, internal, generate
   1,  882,    1
*Elset, elset=_PickedSet5, internal, generate
   1,  400,    1
** Section: Sec-rigid
*Solid Section, elset=_PickedSet5, material=Rigid_mat
,
*End Part
**  
*Part, name=ES_walls
*Node
      1,           9.,           1.,           0.
      2,           1.,           1.,           0.
      3,           9.,           9.,           0.
      4,           1.,           9.,           0.
      5,          10.,           0.,           0.
      6,           0.,           0.,           0.
      7,           0.,          10.,           0.
      8,          10.,          10.,           0.
      9,          8.5,           1.,           0.
     10,           8.,           1.,           0.
     11,          7.5,           1.,           0.
     12,           7.,           1.,           0.
     13,          6.5,           1.,           0.
     14,           6.,           1.,           0.
     15,          5.5,           1.,           0.
     16,           5.,           1.,           0.
     17,          4.5,           1.,           0.
     18,           4.,           1.,           0.
     19,          3.5,           1.,           0.
     20,           3.,           1.,           0.
** ... 412 like lines cut
*Element, type=C3D8H
  1, 190,  93,  92, 145, 406, 309, 308, 361
  2, 206, 105, 104, 205, 422, 321, 320, 421
  3, 179, 112, 111, 147, 395, 328, 327, 363
  4, 211, 124, 123, 210, 427, 340, 339, 426
  5, 167, 149, 131, 130, 383, 365, 347, 346
  6, 156, 150,  74,  73, 372, 366, 290, 289
  7, 200, 201,  86,  85, 416, 417, 302, 301
  8, 151, 215, 143, 142, 367, 431, 359, 358
  9,   5, 144, 152,  69, 221, 360, 368, 285
 10,  70,  69, 152, 153, 286, 285, 368, 369
 11,   9, 154, 153,   1, 225, 370, 369, 217
 12, 154,  71,  70, 153, 370, 287, 286, 369
 13,  10, 155, 154,   9, 226, 371, 370, 225
 14,  72,  71, 154, 155, 288, 287, 370, 371
 15,  73,  72, 155, 156, 289, 288, 371, 372
 16,  13, 157, 150,  12, 229, 373, 366, 228
 17,  76,  75, 157, 158, 292, 291, 373, 374
 18, 197, 159,  78,  77, 413, 375, 294, 293
 19,  79,  78, 159, 160, 295, 294, 375, 376
 20, 198, 161,  81,  80, 414, 377, 297, 296
** ... 124 like lines cut
*Nset, nset=_PickedSet5, internal, generate
   1,  432,    1
*Elset, elset=_PickedSet5, internal, generate
   1,  144,    1
** Section: Sec-rigid
*Solid Section, elset=_PickedSet5, material=Rigid_mat
,
*End Part
**  
*Part, name=SE_skin
*Node
      1,           9.,           9.,           0.
      2,           9.,           1.,           0.
      3,           1.,           1.,           0.
      4,           1.,           9.,           0.
      5,          10.,           0.,           0.
      6,           0.,           0.,           0.
      7,           0.,          10.,           0.
      8,          10.,          10.,           0.
      9,           9.,         8.75,           0.
     10,           9.,          8.5,           0.
     11,           9.,         8.25,           0.
     12,           9.,           8.,           0.
     13,           9.,         7.75,           0.
     14,           9.,          7.5,           0.
     15,           9.,         7.25,           0.
     16,           9.,           7.,           0.
     17,           9.,         6.75,           0.
     18,           9.,          6.5,           0.
     19,           9.,         6.25,           0.
     20,           9.,           6.,           0.
** ... 5062 like lines cut
*Element, type=C3D8H
   1,  132,  289,    9,    1, 1826, 1983, 1703, 1695
   2,  289,  290,   10,    9, 1983, 1984, 1704, 1703
   3,  290,  291,   11,   10, 1984, 1985, 1705, 1704
   4,  291,  292,   12,   11, 1985, 1986, 1706, 1705
   5,  292,  293,   13,   12, 1986, 1987, 1707, 1706
   6,  293,  294,   14,   13, 1987, 1988, 1708, 1707
   7,  294,  295,   15,   14, 1988, 1989, 1709, 1708
   8,  295,  296,   16,   15, 1989, 1990, 1710, 1709
   9,  296,  297,   17,   16, 1990, 1991, 1711, 1710
  10,  297,  298,   18,   17, 1991, 1992, 1712, 1711
  11,  298,  299,   19,   18, 1992, 1993, 1713, 1712
  12,  299,  300,   20,   19, 1993, 1994, 1714, 1713
  13,  300,  301,   21,   20, 1994, 1995, 1715, 1714
  14,  301,  302,   22,   21, 1995, 1996, 1716, 1715
  15,  302,  303,   23,   22, 1996, 1997, 1717, 1716
  16,  303,  304,   24,   23, 1997, 1998, 1718, 1717
  17,  304,  305,   25,   24, 1998, 1999, 1719, 1718
  18,  305,  306,   26,   25, 1999, 2000, 1720, 1719
  19,  306,  307,   27,   26, 2000, 2001, 1721, 1720
  20,  307,  308,   28,   27, 2001, 2002, 1722, 1721
** ... 3206 like lines cut
*Nset, nset=_PickedSet2, internal, generate
    1,  5082,     1
*Elset, elset=_PickedSet2, internal, generate
    1,  3226,     1
*Orientation, name=Ori-1
1., 0., 0., 0., 1., 0.
3, 30.
** Section: Sec-skin
*Solid Section, elset=_PickedSet2, orientation=Ori-1, material=uaniso
,
*End Part
**  
**
** ASSEMBLY
**
*Assembly, name=Assembly
**  
*Instance, name=SE_skin-1, part=SE_skin
*End Instance
**  
*Instance, name=ES_walls-1, part=ES_walls
          0.,           0.,        -0.28
*End Instance
**  
*Instance, name=ES_face-1, part=ES_face
          0.,           0.,        -0.29
*End Instance
**  
*Node
      3,           5.,           5., -0.150000006
*Node
      4,           0.,           0.,           0.
*Node
      1,           0.,           0., -0.150000006
      2,           0.,           0., -0.100000001
*Nset, nset=Set-16, instance=ES_face-1, generate
 442,  882,    1
*Elset, elset=Set-16, instance=ES_face-1, generate
   1,  400,    1
*Nset, nset=_PICKEDSET47, internal
 2,
*Nset, nset=_PickedSet46, internal
 3,
*Nset, nset=_PickedSet49, internal
 4,
*Nset, nset=_PickedSet50, internal, instance=ES_walls-1, generate
   1,  432,    1
*Nset, nset=_PickedSet50, internal, instance=ES_face-1, generate
   1,  882,    1
*Elset, elset=_PickedSet50, internal, instance=ES_walls-1, generate
   1,  144,    1
*Elset, elset=_PickedSet50, internal, instance=ES_face-1, generate
   1,  400,    1
*Elset, elset=__PickedSurf52_S2, internal, instance=ES_walls-1, generate
   1,  144,    1
*Surface, type=ELEMENT, name=_PickedSurf52, internal
__PickedSurf52_S2, S2
*Elset, elset=__PickedSurf55_S1, internal, instance=SE_skin-1, generate
 1025,  1613,     1
*Surface, type=ELEMENT, name=_PickedSurf55, internal
__PickedSurf55_S1, S1
*Elset, elset=__PickedSurf59_S1, internal, instance=SE_skin-1, generate
    1,  1024,     1
*Elset, elset=__PickedSurf59_S1, internal, instance=ES_face-1, generate
   1,  256,    1
*Elset, elset=__PickedSurf59_S6, internal, instance=ES_walls-1
  11,  13,  16,  24,  25,  28,  34,  60,  61,  62,  63,  64,  65, 102, 103, 104
 105, 106, 107, 110
*Elset, elset=__PickedSurf59_S4, internal, instance=ES_walls-1
  68, 114, 115, 116, 117, 120, 122, 124, 127, 129, 131, 138
*Elset, elset=__PickedSurf59_S3, internal, instance=ES_walls-1
  39,  42,  46,  51,  54,  58,  70,  71,  74,  75,  78,  79,  82,  85,  86,  89
  90,  93,  94,  97, 125, 132
*Elset, elset=__PickedSurf59_S5, internal, instance=ES_walls-1
 112, 113, 133, 135, 136, 137, 139, 141, 142, 143
*Surface, type=ELEMENT, name=_PickedSurf59, internal
__PickedSurf59_S1, S1
__PickedSurf59_S6, S6
__PickedSurf59_S4, S4
__PickedSurf59_S3, S3
__PickedSurf59_S5, S5
*Elset, elset=__PickedSurf61_S1, internal, instance=ES_face-1, generate
 257,  400,    1
*Surface, type=ELEMENT, name=_PickedSurf61, internal
__PickedSurf61_S1, S1
*Elset, elset=__PickedSurf62_S1, internal, instance=ES_face-1, generate
 257,  400,    1
*Surface, type=ELEMENT, name=_PickedSurf62, internal
__PickedSurf62_S1, S1
** Constraint: RigidBody-1
*Rigid Body, ref node=_PickedSet49, elset=_PickedSet50
** Constraint: TIE_1-1
*Tie, name=TIE_1-1, adjust=yes
_PickedSurf52, _PickedSurf55
** Constraint: TIE_2-1
*Tie, name=TIE_2-1, adjust=yes
_PickedSurf61, _PickedSurf62
*End Assembly
** 
** MATERIALS
** 
*Material, name=Rigid_mat
*Density
1.,
*Elastic
 1e+12, 0.3
*Material, name=UANISO
*Anisotropic Hyperelastic, user, formulation=INVARIANT, type=INCOMPRESSIBLE, local direction=2, properties=370, moduli=INSTANTANEOUS
4.00000000, 1.00000000, 35.00000000, 11.00000000, 1.00000000, 5.00000000, 5.00000000, 1.00000000, 
-0.85910589, -1.07688153, 1.45707476, 0.54103112, -0.65760696, -0.61357945, 1.10182953, 0.32478797, 
0.70671213, 0.27007818, -0.45063409, 0.47316819, 0.07775789, 1.19855118, 0.06708156, -0.52165765, 
-0.33670557, 0.27636606, 0.05053104, 0.26217318, 0.14254878, -0.04468932, -0.41254610, 0.53424263, 
0.23666419, -0.09412034, 0.34774905, 0.71056652, 0.36141178, -0.34707591, 0.59169352, 0.29879227, 
0.31079504, 0.19773486, 0.34824479, -0.79054862, -2.39423203, -0.21478109, 1.65351987, -0.51912290, 
-1.00407982, 1.06204951, 0.42657793, 0.62399620, 0.52737921, -1.06334615, 0.10263740, -0.07433297, 
0.81619793, 0.12301928, -0.45511386, -0.12136229, 0.26246595, 0.25345120, 0.17821559, 0.57805067, 
0.07488975, -0.46594000, 0.68782413, 0.00722573, -0.44148934, 0.31836006, 0.82988280, 0.29521230, 
-0.08217218, 0.63873148, 0.44587961, 0.56913078, 0.15353522, 0.37052125, -0.84188879, -1.18186188, 
1.18203139, 0.67458153, -0.56339949, -0.74605548, 0.95453060, 0.21607758, 0.57349104, 0.16353065, 
-0.59307152, 0.31464019, -0.04083155, 1.05295670, -0.04824554, -0.36915252, -0.16275878, 0.40288252, 
0.20913585, 0.38460824, 0.26411426, 0.08835386, -0.31341210, 0.65403783, 0.33456546, -0.21971609, 
0.20707935, 0.60962278, 0.23701809, -0.44666919, 0.67468178, 0.18035002, 0.21186949, 0.07891797, 
0.42832702, -0.84188879, -1.18186188, 1.18203139, 0.67458153, -0.56339949, -0.74605548, 0.95453060, 
0.21607758, 0.57349104, 0.16353065, -0.59307152, 0.31464019, -0.04083155, 1.05295670, -0.04824554, 
-0.36915252, -0.16275878, 0.40288252, 0.20913585, 0.38460824, 0.26411426, 0.08835386, -0.31341210, 
0.65403783, 0.33456546, -0.21971609, 0.20707935, 0.60962278, 0.23701809, -0.44666919, 0.67468178, 
0.18035002, 0.21186949, 0.07891797, 0.42832702, -0.84188879, -1.18186188, 1.18203139, 0.67458153, 
-0.56339949, -0.74605548, 0.95453060, 0.21607758, 0.57349104, 0.16353065, -0.59307152, 0.31464019, 
** ... 27 like lines cut
** 
** INTERACTION PROPERTIES
** 
*Fluid Behavior, name=FLUID_PROP
*Fluid Density
1
*Fluid Bulk Modulus
 2.2e+06,
** 
** INTERACTIONS
** 
** Interaction: CAVITY
*Fluid Cavity, name=CAVITY, behavior=FLUID_PROP, refnode=_PickedSet46, surface=_PickedSurf59

** ----------------------------------------------------------------
** 
** STEP: Step-1
** 
*Step, name=Step-1, nlgeom=YES
*Static
1., 10., 0.0001, 1.
** 
** BOUNDARY CONDITIONS
** 
** Name: FluidCavPress-BC-1 Type: Fluid cavity pressure
*Boundary
_PickedSet46, 8, 8, 0.0001
** 
** OUTPUT REQUESTS
** 
*Restart, write, frequency=0
** 
** FIELD OUTPUT: F-Output-1
** 
*Output, field
*Node Output
CF, RF, U
*Element Output, directions=YES
E, EE, LE, PE, PEEQ, PEMAG, S
*Contact Output
CDISP, CSTRESS
** 
** HISTORY OUTPUT: H-Output-1
** 
*Output, history, variable=PRESELECT
*End Step
** ----------------------------------------------------------------
** 
** STEP: Step-2
** 
*Step, name=Step-2, nlgeom=YES
*Static
1., 10., 0.0001, 1.
** 
** BOUNDARY CONDITIONS
** 
** Name: FluidCavPress-BC-1 Type: Fluid cavity pressure
*Boundary, op=NEW
** Name: FluidCavPress-BC-2 Type: Fluid cavity pressure
*Boundary, op=NEW
_PickedSet46, 8, 8, 0.00015
** 
** OUTPUT REQUESTS
** 
*Restart, write, frequency=0
** 
** FIELD OUTPUT: F-Output-2
** 
*Output, field
*Node Output
CF, RF, U
*Element Output, directions=YES
E, EE, LE, PE, PEEQ, PEMAG, S
*Contact Output
CDISP, CSTRESS
** 
** HISTORY OUTPUT: H-Output-2
** 
*Output, history, variable=PRESELECT
*End Step
** ----------------------------------------------------------------
** 
** STEP: Step-3
** 
*Step, name=Step-3, nlgeom=YES
*Static
1., 10., 0.0001, 1.
** 
** BOUNDARY CONDITIONS
** 
** Name: BC-4 Type: Symmetry/Antisymmetry/Encastre
*Boundary, op=NEW
Set-16, ENCASTRE
** Name: FluidCavPress-BC-2 Type: Fluid cavity pressure
*Boundary, op=NEW
** Name: FluidCavPress-BC-3 Type: Fluid cavity pressure
*Boundary, op=NEW
_PickedSet46, 8, 8, 0.0002
** 
** OUTPUT REQUESTS
** 
*Restart, write, frequency=0
** 
** FIELD OUTPUT: F-Output-3
** 
*Output, field
*Node Output
CF, RF, U
*Element Output, directions=YES
E, EE, LE, PE, PEEQ, PEMAG, S
*Contact Output
CDISP, CSTRESS
** 
** HISTORY OUTPUT: H-Output-3
** 
*Output, history, variable=PRESELECT
*End Step
