1

   Abaqus 2020                                  Date 15-Dec-2021   Time 20:28:35
   For use by PURDUE UNIVERSITY under license from Dassault Systemes or its subsidiary.

                                                                                 
                                                                                 
 STEP    1     INCREMENT     1     STEP TIME    0.00    


                        S T E P       1     S T A T I C   A N A L Y S I S


                                                                                          

     AUTOMATIC TIME CONTROL WITH -
          A SUGGESTED INITIAL TIME INCREMENT OF                 1.00    
          AND A TOTAL TIME PERIOD OF                            10.0    
          THE MINIMUM TIME INCREMENT ALLOWED IS                1.000E-04
          THE MAXIMUM TIME INCREMENT ALLOWED IS                 1.00    

     LINEAR EQUATION SOLVER TYPE         DIRECT SPARSE

 CONVERGENCE TOLERANCE PARAMETERS FOR FORCE    
     CRITERION FOR RESIDUAL FORCE     FOR A NONLINEAR PROBLEM          5.000E-03
     CRITERION FOR DISP.    CORRECTION IN A NONLINEAR PROBLEM          1.000E-02
     INITIAL VALUE OF TIME AVERAGE FORCE                               1.000E-02
     AVERAGE FORCE     IS TIME AVERAGE FORCE    
     ALTERNATE CRIT. FOR RESIDUAL FORCE     FOR A NONLINEAR PROBLEM    2.000E-02
     CRITERION FOR ZERO FORCE     RELATIVE TO TIME AVRG. FORCE         1.000E-05
     CRITERION FOR RESIDUAL FORCE     WHEN THERE IS ZERO FLUX          1.000E-05
     CRITERION FOR DISP.    CORRECTION WHEN THERE IS ZERO FLUX         1.000E-03
     CRITERION FOR RESIDUAL FORCE     FOR A LINEAR INCREMENT           1.000E-08
     FIELD CONVERSION RATIO                                             1.00    
     CRITERION FOR ZERO FORCE     REL. TO TIME AVRG. MAX. FORCE        1.000E-05
     CRITERION FOR ZERO DISP.    RELATIVE TO CHARACTERISTIC LENGTH     1.000E-08

 CONVERGENCE TOLERANCE PARAMETERS FOR MOMENT   
     CRITERION FOR RESIDUAL MOMENT    FOR A NONLINEAR PROBLEM          5.000E-03
     CRITERION FOR ROTATION CORRECTION IN A NONLINEAR PROBLEM          1.000E-02
     INITIAL VALUE OF TIME AVERAGE MOMENT                              1.000E-02
     AVERAGE MOMENT    IS TIME AVERAGE MOMENT   
     ALTERNATE CRIT. FOR RESIDUAL MOMENT    FOR A NONLINEAR PROBLEM    2.000E-02
     CRITERION FOR ZERO MOMENT    RELATIVE TO TIME AVRG. MOMENT        1.000E-05
     CRITERION FOR RESIDUAL MOMENT    WHEN THERE IS ZERO FLUX          1.000E-05
     CRITERION FOR ROTATION CORRECTION WHEN THERE IS ZERO FLUX         1.000E-03
     CRITERION FOR RESIDUAL MOMENT    FOR A LINEAR INCREMENT           1.000E-08
     FIELD CONVERSION RATIO                                             1.00    
     CRITERION FOR ZERO MOMENT    REL. TO TIME AVRG. MAX. MOMENT       1.000E-05

 CONVERGENCE TOLERANCE PARAMETERS FOR CAV. VOL.
     CRITERION FOR RESIDUAL CAV. VOL. FOR A NONLINEAR PROBLEM          5.000E-03
     CRITERION FOR H.PRESS. CORRECTION IN A NONLINEAR PROBLEM          1.000E-02
     INITIAL VALUE OF TIME AVERAGE CAV. VOL.                           1.000E-02
     AVERAGE CAV. VOL. IS TIME AVERAGE CAV. VOL.
     ALTERNATE CRIT. FOR RESIDUAL CAV. VOL. FOR A NONLINEAR PROBLEM    2.000E-02
     CRITERION FOR ZERO CAV. VOL. RELATIVE TO TIME AVRG. CAV. VOL.     1.000E-05
     CRITERION FOR RESIDUAL CAV. VOL. WHEN THERE IS ZERO FLUX          1.000E-05
     CRITERION FOR H.PRESS. CORRECTION WHEN THERE IS ZERO FLUX         1.000E-03
     CRITERION FOR RESIDUAL CAV. VOL. FOR A LINEAR INCREMENT           1.000E-08
     FIELD CONVERSION RATIO                                             1.00    
     CRITERION FOR ZERO CAV. VOL. REL. TO TIME AVRG. MAX. CAV. VOL.    1.000E-05

     VOLUMETRIC STRAIN COMPATIBILITY TOLERANCE FOR HYBRID SOLIDS       1.000E-05
     AXIAL STRAIN COMPATIBILITY TOLERANCE FOR HYBRID BEAMS             1.000E-05
     TRANS. SHEAR STRAIN COMPATIBILITY TOLERANCE FOR HYBRID BEAMS      1.000E-05
     SOFT CONTACT CONSTRAINT COMPATIBILITY TOLERANCE FOR P>P0          5.000E-03
     SOFT CONTACT CONSTRAINT COMPATIBILITY TOLERANCE FOR P=0.0         0.100    
     CONTACT FORCE ERROR TOLERANCE FOR CONVERT SDI=YES                 1.00    
     DISPLACEMENT COMPATIBILITY TOLERANCE FOR DCOUP ELEMENTS           1.000E-05
     ROTATION COMPATIBILITY TOLERANCE FOR DCOUP ELEMENTS               1.000E-05

 EQUILIBRIUM WILL BE CHECKED FOR SEVERE DISCONTINUITY ITERATIONS

 TIME INCREMENTATION CONTROL PARAMETERS:
     FIRST EQUILIBRIUM ITERATION FOR CONSECUTIVE DIVERGENCE CHECK              4
     EQUILIBRIUM ITERATION AT WHICH LOG. CONVERGENCE RATE CHECK BEGINS         8
     EQUILIBRIUM ITERATION AFTER WHICH ALTERNATE RESIDUAL IS USED              9
     MAXIMUM EQUILIBRIUM ITERATIONS ALLOWED                                   16
     EQUILIBRIUM ITERATION COUNT FOR CUT-BACK IN NEXT INCREMENT               10
     MAXIMUM EQUILIB. ITERS IN TWO INCREMENTS FOR TIME INCREMENT INCREASE      4
     MAXIMUM ITERATIONS FOR SEVERE DISCONTINUITIES                            50
     MAXIMUM ATTEMPTS ALLOWED IN AN INCREMENT                                  5
     MAXIMUM DISCON. ITERS IN TWO INCREMENTS FOR TIME INCREMENT INCREASE      50
     MAXIMUM CONTACT AUGMENTATIONS FOR *SURFACE BEHAVIOR,AUGMENTED LAGRANGE   50
     CUT-BACK FACTOR AFTER DIVERGENCE                                 0.2500    
     CUT-BACK FACTOR FOR TOO SLOW CONVERGENCE                         0.5000    
     CUT-BACK FACTOR AFTER TOO MANY EQUILIBRIUM ITERATIONS            0.7500    
     CUT-BACK FACTOR AFTER TOO MANY SEVERE DISCONTINUITY ITERATIONS   0.2500    
     CUT-BACK FACTOR AFTER PROBLEMS IN ELEMENT ASSEMBLY               0.2500    
     INCREASE FACTOR AFTER TWO INCREMENTS THAT CONVERGE QUICKLY        1.500    
     MAX. TIME INCREMENT INCREASE FACTOR ALLOWED                       1.500    
     MAX. TIME INCREMENT INCREASE FACTOR ALLOWED (DYNAMICS)            1.250    
     MAX. TIME INCREMENT INCREASE FACTOR ALLOWED (DIFFUSION)           2.000    
     MINIMUM TIME INCREMENT RATIO FOR EXTRAPOLATION TO OCCUR          0.1000    
     MAX. RATIO OF TIME INCREMENT TO STABILITY LIMIT                   1.000    
     FRACTION OF STABILITY LIMIT FOR NEW TIME INCREMENT               0.9500    
     TIME INCREMENT INCREASE FACTOR BEFORE A TIME POINT                1.000    
     GLOBAL STABILIZATION CONTROL IS NOT USED

          PRINT OF INCREMENT NUMBER, TIME, ETC., EVERY    1  INCREMENTS

     THE MAXIMUM NUMBER OF INCREMENTS IN THIS STEP IS                     100

          LARGE DISPLACEMENT THEORY WILL BE USED

     LINEAR EXTRAPOLATION WILL BE USED

     CHARACTERISTIC ELEMENT LENGTH     0.237    

     DETAILS REGARDING ACTUAL SOLUTION WAVEFRONT REQUESTED

     DETAILED OUTPUT OF DIAGNOSTICS TO DATABASE REQUESTED

     PRINT OF INCREMENT NUMBER, TIME, ETC., TO THE MESSAGE FILE EVERY     1  INCREMENTS

     COLLECTING MODEL CONSTRAINT INFORMATION FOR OVERCONSTRAINT CHECKS

     COLLECTING STEP CONSTRAINT INFORMATION FOR OVERCONSTRAINT CHECKS


  INCREMENT     1 STARTS. ATTEMPT NUMBER  1, TIME INCREMENT   1.00    

  NUMBER OF EQUATIONS =     13054     NUMBER OF RHS =    1
  NUMBER OF FLOATING PT. OPERATIONS =  6.82E+08

     CHECK POINT   START OF SOLVER    

     CHECK POINT  END OF SOLVER       

       ELAPSED USER TIME (SEC)      =  0.24000    
       ELAPSED SYSTEM TIME (SEC)    =  6.00000E-02
       ELAPSED TOTAL CPU TIME (SEC) =  0.30000    
       ELAPSED WALLCLOCK TIME (SEC) =          0
 

 ***WARNING: SOLVER PROBLEM. NUMERICAL SINGULARITY WHEN PROCESSING NODE 
             ASSEMBLY.4 D.O.F. 1 RATIO = 203.201E+12  .
 

 ***WARNING: SOLVER PROBLEM. NUMERICAL SINGULARITY WHEN PROCESSING NODE 
             ASSEMBLY.4 D.O.F. 2 RATIO = 284.957E+12  .
 

 ***WARNING: SOLVER PROBLEM. NUMERICAL SINGULARITY WHEN PROCESSING NODE 
             ASSEMBLY.4 D.O.F. 3 RATIO = 1.89329E+15.
 

 ***WARNING: SOLVER PROBLEM. NUMERICAL SINGULARITY WHEN PROCESSING NODE 
             ASSEMBLY.4 D.O.F. 4 RATIO = 3.38079E+15.
 

 ***WARNING: SOLVER PROBLEM. NUMERICAL SINGULARITY WHEN PROCESSING NODE 
             ASSEMBLY.4 D.O.F. 5 RATIO = 271.375E+12  .
 

 ***WARNING: SOLVER PROBLEM. NUMERICAL SINGULARITY WHEN PROCESSING NODE 
             ASSEMBLY.4 D.O.F. 6 RATIO = 435.047E+12  .

               CONVERGENCE CHECKS FOR EQUILIBRIUM ITERATION     1


 AVERAGE FORCE                      4.460E-05   TIME AVG. FORCE       4.460E-05
 LARGEST RESIDUAL FORCE             3.834E-03   AT NODE          4   DOF  3
   INSTANCE:                                                                                 
 LARGEST INCREMENT OF DISP.         0.357       AT NODE       2463   DOF  3
   INSTANCE: SE_SKIN-1                                                                       
 LARGEST CORRECTION TO DISP.        0.357       AT NODE       2463   DOF  3
   INSTANCE: SE_SKIN-1                                                                       
          FORCE     EQUILIBRIUM NOT ACHIEVED WITHIN TOLERANCE.

 AVERAGE MOMENT                      0.00       TIME AVG. MOMENT      1.000E-02
 LARGEST RESIDUAL MOMENT           -2.079E-02   AT NODE          4   DOF  5
   INSTANCE:                                                                                 
 LARGEST INCREMENT OF ROTATION      1.824E-03   AT NODE          4   DOF  4
   INSTANCE: {assembly node}                                                                 
 LARGEST CORRECTION TO ROTATION     1.824E-03   AT NODE          4   DOF  4
   INSTANCE: {assembly node}                                                                 
          THE MOMENT    IS ZERO EVERYWHERE BUT THE MOMENT    RESIDUAL OR
          THE ROTATION CORRECTION IS NON-ZERO

 AVERAGE CAV. VOL.                  1.333E-02   TIME AVG. CAV. VOL.   1.333E-02
 ALL CAV. VOL. RESIDUALS ARE ZERO
 LARGEST INCREMENT OF H.PRESS.      1.000E-05   AT NODE          3   DOF  8
   INSTANCE: {assembly node}                                                                 
 LARGEST CORRECTION TO H.PRESS.     1.000E-05   AT NODE          3   DOF  8
   INSTANCE: {assembly node}                                                                 
          THE CAV. VOL. EQUILIBRIUM RESPONSE WAS LINEAR IN THIS INCREMENT

  NUMBER OF EQUATIONS =     13054     NUMBER OF RHS =    1
  NUMBER OF FLOATING PT. OPERATIONS =  6.82E+08

     CHECK POINT   START OF SOLVER    

     CHECK POINT  END OF SOLVER       

       ELAPSED USER TIME (SEC)      =  0.16000    
       ELAPSED SYSTEM TIME (SEC)    =  1.00000E-02
       ELAPSED TOTAL CPU TIME (SEC) =  0.17000    
       ELAPSED WALLCLOCK TIME (SEC) =          0
 

 ***WARNING: SOLVER PROBLEM. NUMERICAL SINGULARITY WHEN PROCESSING NODE 
             ASSEMBLY.4 D.O.F. 1 RATIO = 1.61035E+15.
 

 ***WARNING: SOLVER PROBLEM. NUMERICAL SINGULARITY WHEN PROCESSING NODE 
             ASSEMBLY.4 D.O.F. 2 RATIO = 2.97061E+15.
 

 ***WARNING: SOLVER PROBLEM. NUMERICAL SINGULARITY WHEN PROCESSING NODE 
             ASSEMBLY.4 D.O.F. 3 RATIO = 908.708E+12  .

               CONVERGENCE CHECKS FOR EQUILIBRIUM ITERATION     2


 AVERAGE FORCE                      1.520E-06   TIME AVG. FORCE       1.520E-06
 LARGEST RESIDUAL FORCE             3.260E-05   AT NODE       4229   DOF  3
   INSTANCE: SE_SKIN-1                                                                       
 LARGEST INCREMENT OF DISP.         0.343       AT NODE       2463   DOF  3
   INSTANCE: SE_SKIN-1                                                                       
 LARGEST CORRECTION TO DISP.       -1.458E-02   AT NODE       4157   DOF  3
   INSTANCE: SE_SKIN-1                                                                       
          FORCE     EQUILIBRIUM NOT ACHIEVED WITHIN TOLERANCE.

 AVERAGE MOMENT                      0.00       TIME AVG. MOMENT      1.000E-02
 LARGEST RESIDUAL MOMENT            8.288E-05   AT NODE          4   DOF  4
   INSTANCE:                                                                                 
 LARGEST INCREMENT OF ROTATION      1.822E-03   AT NODE          4   DOF  4
   INSTANCE: {assembly node}                                                                 
 LARGEST CORRECTION TO ROTATION     7.471E-05   AT NODE          4   DOF  6
   INSTANCE: {assembly node}                                                                 
          THE MOMENT    IS ZERO EVERYWHERE BUT THE MOMENT    RESIDUAL OR
          THE ROTATION CORRECTION IS NON-ZERO

 AVERAGE CAV. VOL.                  1.333E-02   TIME AVG. CAV. VOL.   1.333E-02
 ALL CAV. VOL. RESIDUALS ARE ZERO
 LARGEST INCREMENT OF H.PRESS.      1.000E-05   AT NODE          3   DOF  8
   INSTANCE: {assembly node}                                                                 
 LARGEST CORRECTION TO H.PRESS.     7.048E-36   AT NODE          3   DOF  8
   INSTANCE: {assembly node}                                                                 
          THE CAV. VOL. EQUILIBRIUM EQUATIONS HAVE CONVERGED

  NUMBER OF EQUATIONS =     13054     NUMBER OF RHS =    1
  NUMBER OF FLOATING PT. OPERATIONS =  6.82E+08

     CHECK POINT   START OF SOLVER    

     CHECK POINT  END OF SOLVER       

       ELAPSED USER TIME (SEC)      =  0.17000    
       ELAPSED SYSTEM TIME (SEC)    =  1.00000E-02
       ELAPSED TOTAL CPU TIME (SEC) =  0.18000    
       ELAPSED WALLCLOCK TIME (SEC) =          1
 

 ***WARNING: THE SYSTEM MATRIX HAS 2 NEGATIVE EIGENVALUES.

     NEGATIVE EIGENVALUES MEAN THAT THE SYSTEM MATRIX IS NOT 
     POSITIVE DEFINITE:
     FOR EXAMPLE, A BIFURCATION (BUCKLING) LOAD MAY HAVE BEEN EXCEEDED.
 

 ***WARNING: SOLVER PROBLEM. NUMERICAL SINGULARITY WHEN PROCESSING NODE 
             ASSEMBLY.4 D.O.F. 1 RATIO = 1.28062E+15.
 

 ***WARNING: SOLVER PROBLEM. NUMERICAL SINGULARITY WHEN PROCESSING NODE 
             ASSEMBLY.4 D.O.F. 2 RATIO = 1.07714E+15.
 

 ***WARNING: SOLVER PROBLEM. NUMERICAL SINGULARITY WHEN PROCESSING NODE 
             ASSEMBLY.4 D.O.F. 3 RATIO = 1.69991E+15.

               CONVERGENCE CHECKS FOR EQUILIBRIUM ITERATION     3


 AVERAGE FORCE                      3.588E-06   TIME AVG. FORCE       3.588E-06
 LARGEST RESIDUAL FORCE            -5.029E-04   AT NODE          4   DOF  3
   INSTANCE:                                                                                 
 LARGEST INCREMENT OF DISP.         0.632       AT NODE       4146   DOF  2
   INSTANCE: SE_SKIN-1                                                                       
 LARGEST CORRECTION TO DISP.        0.647       AT NODE       4230   DOF  2
   INSTANCE: SE_SKIN-1                                                                       
          FORCE     EQUILIBRIUM NOT ACHIEVED WITHIN TOLERANCE.

 AVERAGE MOMENT                      0.00       TIME AVG. MOMENT      1.000E-02
 LARGEST RESIDUAL MOMENT            4.120E-03   AT NODE          4   DOF  5
   INSTANCE:                                                                                 
 LARGEST INCREMENT OF ROTATION      4.251E-03   AT NODE          4   DOF  4
   INSTANCE: {assembly node}                                                                 
 LARGEST CORRECTION TO ROTATION     2.429E-03   AT NODE          4   DOF  4
   INSTANCE: {assembly node}                                                                 
          THE MOMENT    IS ZERO EVERYWHERE BUT THE MOMENT    RESIDUAL OR
          THE ROTATION CORRECTION IS NON-ZERO

 AVERAGE CAV. VOL.                  1.333E-02   TIME AVG. CAV. VOL.   1.333E-02
 ALL CAV. VOL. RESIDUALS ARE ZERO
 LARGEST INCREMENT OF H.PRESS.      1.000E-05   AT NODE          3   DOF  8
   INSTANCE: {assembly node}                                                                 
 LARGEST CORRECTION TO H.PRESS.     5.493E-36   AT NODE          3   DOF  8
   INSTANCE: {assembly node}                                                                 
          THE CAV. VOL. EQUILIBRIUM EQUATIONS HAVE CONVERGED

  NUMBER OF EQUATIONS =     13054     NUMBER OF RHS =    1
  NUMBER OF FLOATING PT. OPERATIONS =  6.82E+08

     CHECK POINT   START OF SOLVER    

     CHECK POINT  END OF SOLVER       

       ELAPSED USER TIME (SEC)      =  0.16000    
       ELAPSED SYSTEM TIME (SEC)    =  2.00000E-02
       ELAPSED TOTAL CPU TIME (SEC) =  0.18000    
       ELAPSED WALLCLOCK TIME (SEC) =          0
 

 ***WARNING: SOLVER PROBLEM. NUMERICAL SINGULARITY WHEN PROCESSING NODE 
             ASSEMBLY.4 D.O.F. 1 RATIO = 2.20587E+15.
 

 ***WARNING: SOLVER PROBLEM. NUMERICAL SINGULARITY WHEN PROCESSING NODE 
             ASSEMBLY.4 D.O.F. 2 RATIO = 1.17837E+15.
 

 ***WARNING: SOLVER PROBLEM. NUMERICAL SINGULARITY WHEN PROCESSING NODE 
             ASSEMBLY.4 D.O.F. 3 RATIO = 31.7879E+15 .

               CONVERGENCE CHECKS FOR EQUILIBRIUM ITERATION     4


 AVERAGE FORCE                      1.009E-06   TIME AVG. FORCE       1.009E-06
 LARGEST RESIDUAL FORCE             2.071E-06   AT NODE          4   DOF  3
   INSTANCE:                                                                                 
 LARGEST INCREMENT OF DISP.        -0.755       AT NODE        221   DOF  3
   INSTANCE: ES_WALLS-1                                                                      
 LARGEST CORRECTION TO DISP.       -0.225       AT NODE       2463   DOF  3
   INSTANCE: SE_SKIN-1                                                                       
          FORCE     EQUILIBRIUM NOT ACHIEVED WITHIN TOLERANCE.

 AVERAGE MOMENT                      0.00       TIME AVG. MOMENT      1.000E-02
 LARGEST RESIDUAL MOMENT           -1.268E-05   AT NODE          4   DOF  5
   INSTANCE:                                                                                 
 LARGEST INCREMENT OF ROTATION      4.140E-03   AT NODE          4   DOF  4
   INSTANCE: {assembly node}                                                                 
 LARGEST CORRECTION TO ROTATION    -1.104E-04   AT NODE          4   DOF  4
   INSTANCE: {assembly node}                                                                 
          THE MOMENT    IS ZERO EVERYWHERE BUT THE MOMENT    RESIDUAL OR
          THE ROTATION CORRECTION IS NON-ZERO

 AVERAGE CAV. VOL.                  1.333E-02   TIME AVG. CAV. VOL.   1.333E-02
 ALL CAV. VOL. RESIDUALS ARE ZERO
 LARGEST INCREMENT OF H.PRESS.      1.000E-05   AT NODE          3   DOF  8
   INSTANCE: {assembly node}                                                                 
 LARGEST CORRECTION TO H.PRESS.     5.363E-36   AT NODE          3   DOF  8
   INSTANCE: {assembly node}                                                                 
          THE CAV. VOL. EQUILIBRIUM EQUATIONS HAVE CONVERGED

  NUMBER OF EQUATIONS =     13054     NUMBER OF RHS =    1
  NUMBER OF FLOATING PT. OPERATIONS =  6.82E+08

     CHECK POINT   START OF SOLVER    

     CHECK POINT  END OF SOLVER       

       ELAPSED USER TIME (SEC)      =  0.16000    
       ELAPSED SYSTEM TIME (SEC)    =  1.00000E-02
       ELAPSED TOTAL CPU TIME (SEC) =  0.17000    
       ELAPSED WALLCLOCK TIME (SEC) =          0
 

 ***WARNING: SOLVER PROBLEM. NUMERICAL SINGULARITY WHEN PROCESSING NODE 
             ASSEMBLY.4 D.O.F. 1 RATIO = 832.422E+12  .
 

 ***WARNING: SOLVER PROBLEM. NUMERICAL SINGULARITY WHEN PROCESSING NODE 
             ASSEMBLY.4 D.O.F. 2 RATIO = 3.84978E+15.
 

 ***WARNING: SOLVER PROBLEM. NUMERICAL SINGULARITY WHEN PROCESSING NODE 
             ASSEMBLY.4 D.O.F. 3 RATIO = 1.42738E+15.

               CONVERGENCE CHECKS FOR EQUILIBRIUM ITERATION     5


 AVERAGE FORCE                      9.904E-07   TIME AVG. FORCE       9.904E-07
 LARGEST RESIDUAL FORCE            -2.740E-06   AT NODE          4   DOF  3
   INSTANCE:                                                                                 
 LARGEST INCREMENT OF DISP.        -0.728       AT NODE        221   DOF  3
   INSTANCE: ES_WALLS-1                                                                      
 LARGEST CORRECTION TO DISP.       -9.472E-02   AT NODE       4150   DOF  2
   INSTANCE: SE_SKIN-1                                                                       
          FORCE     EQUILIBRIUM NOT ACHIEVED WITHIN TOLERANCE.

 AVERAGE MOMENT                      0.00       TIME AVG. MOMENT      1.000E-02
 LARGEST RESIDUAL MOMENT            2.030E-05   AT NODE          4   DOF  5
   INSTANCE:                                                                                 
 LARGEST INCREMENT OF ROTATION      4.296E-03   AT NODE          4   DOF  4
   INSTANCE: {assembly node}                                                                 
 LARGEST CORRECTION TO ROTATION     1.560E-04   AT NODE          4   DOF  4
   INSTANCE: {assembly node}                                                                 
          THE MOMENT    IS ZERO EVERYWHERE BUT THE MOMENT    RESIDUAL OR
          THE ROTATION CORRECTION IS NON-ZERO

 AVERAGE CAV. VOL.                  1.333E-02   TIME AVG. CAV. VOL.   1.333E-02
 ALL CAV. VOL. RESIDUALS ARE ZERO
 LARGEST INCREMENT OF H.PRESS.      1.000E-05   AT NODE          3   DOF  8
   INSTANCE: {assembly node}                                                                 
 LARGEST CORRECTION TO H.PRESS.     5.261E-36   AT NODE          3   DOF  8
   INSTANCE: {assembly node}                                                                 
          THE CAV. VOL. EQUILIBRIUM EQUATIONS HAVE CONVERGED

  NUMBER OF EQUATIONS =     13054     NUMBER OF RHS =    1
  NUMBER OF FLOATING PT. OPERATIONS =  6.82E+08

     CHECK POINT   START OF SOLVER    

     CHECK POINT  END OF SOLVER       

       ELAPSED USER TIME (SEC)      =  0.16000    
       ELAPSED SYSTEM TIME (SEC)    =   0.0000    
       ELAPSED TOTAL CPU TIME (SEC) =  0.16000    
       ELAPSED WALLCLOCK TIME (SEC) =          0
 

 ***WARNING: SOLVER PROBLEM. NUMERICAL SINGULARITY WHEN PROCESSING NODE 
             ASSEMBLY.4 D.O.F. 1 RATIO = 1.81995E+15.
 

 ***WARNING: SOLVER PROBLEM. NUMERICAL SINGULARITY WHEN PROCESSING NODE 
             ASSEMBLY.4 D.O.F. 2 RATIO = 3.04865E+15.
 

 ***WARNING: SOLVER PROBLEM. NUMERICAL SINGULARITY WHEN PROCESSING NODE 
             ASSEMBLY.4 D.O.F. 3 RATIO = 7.76424E+15.

               CONVERGENCE CHECKS FOR EQUILIBRIUM ITERATION     6


 AVERAGE FORCE                      9.877E-07   TIME AVG. FORCE       9.877E-07
 LARGEST RESIDUAL FORCE             2.229E-09   AT NODE          4   DOF  3
   INSTANCE:                                                                                 
 LARGEST INCREMENT OF DISP.        -0.727       AT NODE        221   DOF  3
   INSTANCE: ES_WALLS-1                                                                      
 LARGEST CORRECTION TO DISP.       -2.563E-03   AT NODE        986   DOF  1
   INSTANCE: SE_SKIN-1                                                                       
          THE FORCE     EQUILIBRIUM EQUATIONS HAVE CONVERGED

 AVERAGE MOMENT                      0.00       TIME AVG. MOMENT      1.000E-02
 LARGEST RESIDUAL MOMENT           -1.533E-08   AT NODE          4   DOF  5
   INSTANCE:                                                                                 
 LARGEST INCREMENT OF ROTATION      4.292E-03   AT NODE          4   DOF  4
   INSTANCE: {assembly node}                                                                 
 LARGEST CORRECTION TO ROTATION    -3.682E-06   AT NODE          4   DOF  4
   INSTANCE: {assembly node}                                                                 
          THERE IS ZERO MOMENT    EVERYWHERE

 AVERAGE CAV. VOL.                  1.333E-02   TIME AVG. CAV. VOL.   1.333E-02
 ALL CAV. VOL. RESIDUALS ARE ZERO
 LARGEST INCREMENT OF H.PRESS.      1.000E-05   AT NODE          3   DOF  8
   INSTANCE: {assembly node}                                                                 
 LARGEST CORRECTION TO H.PRESS.     5.262E-36   AT NODE          3   DOF  8
   INSTANCE: {assembly node}                                                                 
          THE CAV. VOL. EQUILIBRIUM EQUATIONS HAVE CONVERGED

 ITERATION SUMMARY FOR THE INCREMENT:   6 TOTAL ITERATIONS, OF WHICH
   0 ARE SEVERE DISCONTINUITY ITERATIONS AND  6 ARE EQUILIBRIUM ITERATIONS.

 TIME INCREMENT COMPLETED   1.00    ,  FRACTION OF STEP COMPLETED  0.100    
 STEP TIME COMPLETED        1.00    ,  TOTAL TIME COMPLETED         1.00    


  INCREMENT     2 STARTS. ATTEMPT NUMBER  1, TIME INCREMENT   1.00    

  NUMBER OF EQUATIONS =     13054     NUMBER OF RHS =    1
  NUMBER OF FLOATING PT. OPERATIONS =  6.82E+08

     CHECK POINT   START OF SOLVER    

     CHECK POINT  END OF SOLVER       

       ELAPSED USER TIME (SEC)      =  0.16000    
       ELAPSED SYSTEM TIME (SEC)    =  1.00000E-02
       ELAPSED TOTAL CPU TIME (SEC) =  0.17000    
       ELAPSED WALLCLOCK TIME (SEC) =          0
 

 ***WARNING: SOLVER PROBLEM. NUMERICAL SINGULARITY WHEN PROCESSING NODE 
             ASSEMBLY.4 D.O.F. 1 RATIO = 5.21836E+15.
 

 ***WARNING: SOLVER PROBLEM. NUMERICAL SINGULARITY WHEN PROCESSING NODE 
             ASSEMBLY.4 D.O.F. 2 RATIO = 757.412E+12  .
 

 ***WARNING: SOLVER PROBLEM. NUMERICAL SINGULARITY WHEN PROCESSING NODE 
             ASSEMBLY.4 D.O.F. 3 RATIO = 2.51308E+15.

               CONVERGENCE CHECKS FOR EQUILIBRIUM ITERATION     1


 AVERAGE FORCE                      2.498E-06   TIME AVG. FORCE       1.743E-06
 LARGEST RESIDUAL FORCE            -9.191E-04   AT NODE          4   DOF  3
   INSTANCE:                                                                                 
 LARGEST INCREMENT OF DISP.        -0.732       AT NODE        221   DOF  3
   INSTANCE: ES_WALLS-1                                                                      
 LARGEST CORRECTION TO DISP.        9.454E-02   AT NODE        586   DOF  1
   INSTANCE: SE_SKIN-1                                                                       
          FORCE     EQUILIBRIUM NOT ACHIEVED WITHIN TOLERANCE.

 AVERAGE MOMENT                      0.00       TIME AVG. MOMENT      1.000E-02
 LARGEST RESIDUAL MOMENT           -6.094E-03   AT NODE          4   DOF  4
   INSTANCE:                                                                                 
 LARGEST INCREMENT OF ROTATION      4.459E-03   AT NODE          4   DOF  4
   INSTANCE: {assembly node}                                                                 
 LARGEST CORRECTION TO ROTATION     1.670E-04   AT NODE          4   DOF  4
   INSTANCE: {assembly node}                                                                 
          THE MOMENT    IS ZERO EVERYWHERE BUT THE MOMENT    RESIDUAL OR
          THE ROTATION CORRECTION IS NON-ZERO

 AVERAGE CAV. VOL.                  1.333E-02   TIME AVG. CAV. VOL.   1.333E-02
 ALL CAV. VOL. RESIDUALS ARE ZERO
 LARGEST INCREMENT OF H.PRESS.      1.000E-05   AT NODE          3   DOF  8
   INSTANCE: {assembly node}                                                                 
 LARGEST CORRECTION TO H.PRESS.     1.004E-35   AT NODE          3   DOF  8
   INSTANCE: {assembly node}                                                                 
          THE CAV. VOL. EQUILIBRIUM RESPONSE WAS LINEAR IN THIS INCREMENT

  NUMBER OF EQUATIONS =     13054     NUMBER OF RHS =    1
  NUMBER OF FLOATING PT. OPERATIONS =  6.82E+08

     CHECK POINT   START OF SOLVER    

     CHECK POINT  END OF SOLVER       

       ELAPSED USER TIME (SEC)      =  0.16000    
       ELAPSED SYSTEM TIME (SEC)    =  1.00000E-02
       ELAPSED TOTAL CPU TIME (SEC) =  0.17000    
       ELAPSED WALLCLOCK TIME (SEC) =          1
 

 ***WARNING: THE SYSTEM MATRIX HAS 1 NEGATIVE EIGENVALUES.
             EXPLANATIONS ARE SUGGESTED AFTER THE FIRST OCCURRENCE OF THIS MESSAGE.
 

 ***WARNING: SOLVER PROBLEM. NUMERICAL SINGULARITY WHEN PROCESSING NODE 
             ASSEMBLY.4 D.O.F. 1 RATIO = 1.03462E+15.
 

 ***WARNING: SOLVER PROBLEM. NUMERICAL SINGULARITY WHEN PROCESSING NODE 
             ASSEMBLY.4 D.O.F. 2 RATIO = 1.81505E+15.
 

 ***WARNING: SOLVER PROBLEM. NUMERICAL SINGULARITY WHEN PROCESSING NODE 
             ASSEMBLY.4 D.O.F. 3 RATIO = 3.52803E+15.

               CONVERGENCE CHECKS FOR EQUILIBRIUM ITERATION     2


 AVERAGE FORCE                      5.075E-06   TIME AVG. FORCE       3.031E-06
 LARGEST RESIDUAL FORCE             8.797E-05   AT NODE       1079   DOF  3
   INSTANCE: SE_SKIN-1                                                                       
 LARGEST INCREMENT OF DISP.        -0.607       AT NODE       3393   DOF  3
   INSTANCE: SE_SKIN-1                                                                       
 LARGEST CORRECTION TO DISP.        0.137       AT NODE       4227   DOF  2
   INSTANCE: SE_SKIN-1                                                                       
          FORCE     EQUILIBRIUM NOT ACHIEVED WITHIN TOLERANCE.

 AVERAGE MOMENT                      0.00       TIME AVG. MOMENT      1.000E-02
 LARGEST RESIDUAL MOMENT            1.646E-04   AT NODE          4   DOF  4
   INSTANCE:                                                                                 
 LARGEST INCREMENT OF ROTATION      4.119E-03   AT NODE          4   DOF  4
   INSTANCE: {assembly node}                                                                 
 LARGEST CORRECTION TO ROTATION     4.876E-04   AT NODE          4   DOF  5
   INSTANCE: {assembly node}                                                                 
          THE MOMENT    IS ZERO EVERYWHERE BUT THE MOMENT    RESIDUAL OR
          THE ROTATION CORRECTION IS NON-ZERO

 AVERAGE CAV. VOL.                  1.333E-02   TIME AVG. CAV. VOL.   1.333E-02
 ALL CAV. VOL. RESIDUALS ARE ZERO
 LARGEST INCREMENT OF H.PRESS.      1.000E-05   AT NODE          3   DOF  8
   INSTANCE: {assembly node}                                                                 
 LARGEST CORRECTION TO H.PRESS.     8.234E-36   AT NODE          3   DOF  8
   INSTANCE: {assembly node}                                                                 
          THE CAV. VOL. EQUILIBRIUM EQUATIONS HAVE CONVERGED

  NUMBER OF EQUATIONS =     13054     NUMBER OF RHS =    1
  NUMBER OF FLOATING PT. OPERATIONS =  6.82E+08

     CHECK POINT   START OF SOLVER    

     CHECK POINT  END OF SOLVER       

       ELAPSED USER TIME (SEC)      =  0.17000    
       ELAPSED SYSTEM TIME (SEC)    =  1.00000E-02
       ELAPSED TOTAL CPU TIME (SEC) =  0.18000    
       ELAPSED WALLCLOCK TIME (SEC) =          0
 

 ***WARNING: SOLVER PROBLEM. NUMERICAL SINGULARITY WHEN PROCESSING NODE 
             ASSEMBLY.4 D.O.F. 1 RATIO = 1.02126E+15.
 

 ***WARNING: SOLVER PROBLEM. NUMERICAL SINGULARITY WHEN PROCESSING NODE 
             ASSEMBLY.4 D.O.F. 2 RATIO = 1.80217E+15.
 

 ***WARNING: SOLVER PROBLEM. NUMERICAL SINGULARITY WHEN PROCESSING NODE 
             ASSEMBLY.4 D.O.F. 3 RATIO = 892.291E+12  .

               CONVERGENCE CHECKS FOR EQUILIBRIUM ITERATION     3


 AVERAGE FORCE                      1.781E-06   TIME AVG. FORCE       1.384E-06
 LARGEST RESIDUAL FORCE             2.726E-06   AT NODE          4   DOF  3
   INSTANCE:                                                                                 
 LARGEST INCREMENT OF DISP.        -0.602       AT NODE       3393   DOF  3
   INSTANCE: SE_SKIN-1                                                                       
 LARGEST CORRECTION TO DISP.       -6.878E-03   AT NODE       4145   DOF  2
   INSTANCE: SE_SKIN-1                                                                       
          FORCE     EQUILIBRIUM NOT ACHIEVED WITHIN TOLERANCE.

 AVERAGE MOMENT                      0.00       TIME AVG. MOMENT      1.000E-02
 LARGEST RESIDUAL MOMENT           -1.453E-05   AT NODE          4   DOF  5
   INSTANCE:                                                                                 
 LARGEST INCREMENT OF ROTATION      4.162E-03   AT NODE          4   DOF  4
   INSTANCE: {assembly node}                                                                 
 LARGEST CORRECTION TO ROTATION    -4.641E-05   AT NODE          4   DOF  5
   INSTANCE: {assembly node}                                                                 
          THE MOMENT    IS ZERO EVERYWHERE BUT THE MOMENT    RESIDUAL OR
          THE ROTATION CORRECTION IS NON-ZERO

 AVERAGE CAV. VOL.                  1.333E-02   TIME AVG. CAV. VOL.   1.333E-02
 ALL CAV. VOL. RESIDUALS ARE ZERO
 LARGEST INCREMENT OF H.PRESS.      1.000E-05   AT NODE          3   DOF  8
   INSTANCE: {assembly node}                                                                 
 LARGEST CORRECTION TO H.PRESS.     8.038E-36   AT NODE          3   DOF  8
   INSTANCE: {assembly node}                                                                 
          THE CAV. VOL. EQUILIBRIUM EQUATIONS HAVE CONVERGED

  NUMBER OF EQUATIONS =     13054     NUMBER OF RHS =    1
  NUMBER OF FLOATING PT. OPERATIONS =  6.82E+08

     CHECK POINT   START OF SOLVER    

     CHECK POINT  END OF SOLVER       

       ELAPSED USER TIME (SEC)      =  0.16000    
       ELAPSED SYSTEM TIME (SEC)    =  1.00000E-02
       ELAPSED TOTAL CPU TIME (SEC) =  0.17000    
       ELAPSED WALLCLOCK TIME (SEC) =          0
 

 ***WARNING: SOLVER PROBLEM. NUMERICAL SINGULARITY WHEN PROCESSING NODE 
             ASSEMBLY.4 D.O.F. 1 RATIO = 1.00399E+15.
 

 ***WARNING: SOLVER PROBLEM. NUMERICAL SINGULARITY WHEN PROCESSING NODE 
             ASSEMBLY.4 D.O.F. 2 RATIO = 2.18829E+15.
 

 ***WARNING: SOLVER PROBLEM. NUMERICAL SINGULARITY WHEN PROCESSING NODE 
             ASSEMBLY.4 D.O.F. 3 RATIO = 1.33913E+15.

               CONVERGENCE CHECKS FOR EQUILIBRIUM ITERATION     4


 AVERAGE FORCE                      1.733E-06   TIME AVG. FORCE       1.360E-06
 LARGEST RESIDUAL FORCE            -1.212E-06   AT NODE       4436   DOF  3
   INSTANCE: SE_SKIN-1                                                                       
 LARGEST INCREMENT OF DISP.        -0.608       AT NODE       3393   DOF  3
   INSTANCE: SE_SKIN-1                                                                       
 LARGEST CORRECTION TO DISP.       -1.542E-02   AT NODE        769   DOF  3
   INSTANCE: SE_SKIN-1                                                                       
          FORCE     EQUILIBRIUM NOT ACHIEVED WITHIN TOLERANCE.

 AVERAGE MOMENT                      0.00       TIME AVG. MOMENT      1.000E-02
 LARGEST RESIDUAL MOMENT           -1.015E-06   AT NODE          4   DOF  5
   INSTANCE:                                                                                 
 LARGEST INCREMENT OF ROTATION      4.092E-03   AT NODE          4   DOF  4
   INSTANCE: {assembly node}                                                                 
 LARGEST CORRECTION TO ROTATION     7.083E-05   AT NODE          4   DOF  5
   INSTANCE: {assembly node}                                                                 
          THE MOMENT    IS ZERO EVERYWHERE BUT THE MOMENT    RESIDUAL OR
          THE ROTATION CORRECTION IS NON-ZERO

 AVERAGE CAV. VOL.                  1.333E-02   TIME AVG. CAV. VOL.   1.333E-02
 ALL CAV. VOL. RESIDUALS ARE ZERO
 LARGEST INCREMENT OF H.PRESS.      1.000E-05   AT NODE          3   DOF  8
   INSTANCE: {assembly node}                                                                 
 LARGEST CORRECTION TO H.PRESS.     7.877E-36   AT NODE          3   DOF  8
   INSTANCE: {assembly node}                                                                 
          THE CAV. VOL. EQUILIBRIUM EQUATIONS HAVE CONVERGED

  NUMBER OF EQUATIONS =     13054     NUMBER OF RHS =    1
  NUMBER OF FLOATING PT. OPERATIONS =  6.82E+08

     CHECK POINT   START OF SOLVER    

     CHECK POINT  END OF SOLVER       

       ELAPSED USER TIME (SEC)      =  0.16000    
       ELAPSED SYSTEM TIME (SEC)    =  1.00000E-02
       ELAPSED TOTAL CPU TIME (SEC) =  0.17000    
       ELAPSED WALLCLOCK TIME (SEC) =          0
 

 ***WARNING: SOLVER PROBLEM. NUMERICAL SINGULARITY WHEN PROCESSING NODE 
             ASSEMBLY.4 D.O.F. 1 RATIO = 593.204E+12  .
 

 ***WARNING: SOLVER PROBLEM. NUMERICAL SINGULARITY WHEN PROCESSING NODE 
             ASSEMBLY.4 D.O.F. 2 RATIO = 7.12731E+15.
 

 ***WARNING: SOLVER PROBLEM. NUMERICAL SINGULARITY WHEN PROCESSING NODE 
             ASSEMBLY.4 D.O.F. 3 RATIO = 977.991E+12  .

               CONVERGENCE CHECKS FOR EQUILIBRIUM ITERATION     5


 AVERAGE FORCE                      1.717E-06   TIME AVG. FORCE       1.352E-06
 LARGEST RESIDUAL FORCE            -1.318E-09   AT NODE       4118   DOF  3
   INSTANCE: SE_SKIN-1                                                                       
 LARGEST INCREMENT OF DISP.        -0.608       AT NODE       3393   DOF  3
   INSTANCE: SE_SKIN-1                                                                       
 LARGEST CORRECTION TO DISP.        6.449E-04   AT NODE       4165   DOF  2
   INSTANCE: SE_SKIN-1                                                                       
          THE FORCE     EQUILIBRIUM EQUATIONS HAVE CONVERGED

 AVERAGE MOMENT                      0.00       TIME AVG. MOMENT      1.000E-02
 LARGEST RESIDUAL MOMENT            7.381E-11   AT NODE          4   DOF  4
   INSTANCE:                                                                                 
 LARGEST INCREMENT OF ROTATION      4.095E-03   AT NODE          4   DOF  4
   INSTANCE: {assembly node}                                                                 
 LARGEST CORRECTION TO ROTATION    -2.470E-06   AT NODE          4   DOF  5
   INSTANCE: {assembly node}                                                                 
          THERE IS ZERO MOMENT    EVERYWHERE

 AVERAGE CAV. VOL.                  1.333E-02   TIME AVG. CAV. VOL.   1.333E-02
 ALL CAV. VOL. RESIDUALS ARE ZERO
 LARGEST INCREMENT OF H.PRESS.      1.000E-05   AT NODE          3   DOF  8
   INSTANCE: {assembly node}                                                                 
 LARGEST CORRECTION TO H.PRESS.     7.872E-36   AT NODE          3   DOF  8
   INSTANCE: {assembly node}                                                                 
          THE CAV. VOL. EQUILIBRIUM EQUATIONS HAVE CONVERGED

 ITERATION SUMMARY FOR THE INCREMENT:   5 TOTAL ITERATIONS, OF WHICH
   0 ARE SEVERE DISCONTINUITY ITERATIONS AND  5 ARE EQUILIBRIUM ITERATIONS.

 TIME INCREMENT COMPLETED   1.00    ,  FRACTION OF STEP COMPLETED  0.200    
 STEP TIME COMPLETED        2.00    ,  TOTAL TIME COMPLETED         2.00    


  INCREMENT     3 STARTS. ATTEMPT NUMBER  1, TIME INCREMENT   1.00    

  NUMBER OF EQUATIONS =     13054     NUMBER OF RHS =    1
  NUMBER OF FLOATING PT. OPERATIONS =  6.82E+08

     CHECK POINT   START OF SOLVER    

     CHECK POINT  END OF SOLVER       

       ELAPSED USER TIME (SEC)      =  0.16000    
       ELAPSED SYSTEM TIME (SEC)    =  1.00000E-02
       ELAPSED TOTAL CPU TIME (SEC) =  0.17000    
       ELAPSED WALLCLOCK TIME (SEC) =          1
 

 ***WARNING: SOLVER PROBLEM. NUMERICAL SINGULARITY WHEN PROCESSING NODE 
             ASSEMBLY.4 D.O.F. 1 RATIO = 1.41973E+15.
 

 ***WARNING: SOLVER PROBLEM. NUMERICAL SINGULARITY WHEN PROCESSING NODE 
             ASSEMBLY.4 D.O.F. 2 RATIO = 1.02102E+15.
 

 ***WARNING: SOLVER PROBLEM. NUMERICAL SINGULARITY WHEN PROCESSING NODE 
             ASSEMBLY.4 D.O.F. 3 RATIO = 55.4630E+15 .

               CONVERGENCE CHECKS FOR EQUILIBRIUM ITERATION     1


 AVERAGE FORCE                      2.552E-06   TIME AVG. FORCE       1.752E-06
 LARGEST RESIDUAL FORCE            -1.056E-03   AT NODE          4   DOF  3
   INSTANCE:                                                                                 
 LARGEST INCREMENT OF DISP.         -2.70       AT NODE       3393   DOF  3
   INSTANCE: SE_SKIN-1                                                                       
 LARGEST CORRECTION TO DISP.        -2.69       AT NODE        807   DOF  2
   INSTANCE: SE_SKIN-1                                                                       
          FORCE     EQUILIBRIUM NOT ACHIEVED WITHIN TOLERANCE.

 AVERAGE MOMENT                      0.00       TIME AVG. MOMENT      1.000E-02
 LARGEST RESIDUAL MOMENT           -6.668E-03   AT NODE          4   DOF  4
   INSTANCE:                                                                                 
 LARGEST INCREMENT OF ROTATION      4.554E-03   AT NODE          4   DOF  4
   INSTANCE: {assembly node}                                                                 
 LARGEST CORRECTION TO ROTATION     4.590E-04   AT NODE          4   DOF  4
   INSTANCE: {assembly node}                                                                 
          THE MOMENT    IS ZERO EVERYWHERE BUT THE MOMENT    RESIDUAL OR
          THE ROTATION CORRECTION IS NON-ZERO

 AVERAGE CAV. VOL.                  1.333E-02   TIME AVG. CAV. VOL.   1.333E-02
 ALL CAV. VOL. RESIDUALS ARE ZERO
 LARGEST INCREMENT OF H.PRESS.      1.000E-05   AT NODE          3   DOF  8
   INSTANCE: {assembly node}                                                                 
 LARGEST CORRECTION TO H.PRESS.     1.694E-21   AT NODE          3   DOF  8
   INSTANCE: {assembly node}                                                                 
          THE CAV. VOL. EQUILIBRIUM RESPONSE WAS LINEAR IN THIS INCREMENT

  NUMBER OF EQUATIONS =     13054     NUMBER OF RHS =    1
  NUMBER OF FLOATING PT. OPERATIONS =  6.82E+08

     CHECK POINT   START OF SOLVER    

     CHECK POINT  END OF SOLVER       

       ELAPSED USER TIME (SEC)      =  0.18000    
       ELAPSED SYSTEM TIME (SEC)    =   0.0000    
       ELAPSED TOTAL CPU TIME (SEC) =  0.18000    
       ELAPSED WALLCLOCK TIME (SEC) =          0
 

 ***WARNING: THE SYSTEM MATRIX HAS 1 NEGATIVE EIGENVALUES.
             EXPLANATIONS ARE SUGGESTED AFTER THE FIRST OCCURRENCE OF THIS MESSAGE.
 

 ***WARNING: SOLVER PROBLEM. NUMERICAL SINGULARITY WHEN PROCESSING NODE 
             ASSEMBLY.4 D.O.F. 1 RATIO = 1.41228E+15.
 

 ***WARNING: SOLVER PROBLEM. NUMERICAL SINGULARITY WHEN PROCESSING NODE 
             ASSEMBLY.4 D.O.F. 2 RATIO = 32.4821E+15 .
 

 ***WARNING: SOLVER PROBLEM. NUMERICAL SINGULARITY WHEN PROCESSING NODE 
             ASSEMBLY.4 D.O.F. 3 RATIO = 556.469E+12  .

               CONVERGENCE CHECKS FOR EQUILIBRIUM ITERATION     2


 AVERAGE FORCE                      2.452E-06   TIME AVG. FORCE       1.719E-06
 LARGEST RESIDUAL FORCE            -4.993E-06   AT NODE       4168   DOF  3
   INSTANCE: SE_SKIN-1                                                                       
 LARGEST INCREMENT OF DISP.         -2.70       AT NODE       3393   DOF  3
   INSTANCE: SE_SKIN-1                                                                       
 LARGEST CORRECTION TO DISP.        0.258       AT NODE       4197   DOF  2
   INSTANCE: SE_SKIN-1                                                                       
          FORCE     EQUILIBRIUM NOT ACHIEVED WITHIN TOLERANCE.

 AVERAGE MOMENT                      0.00       TIME AVG. MOMENT      1.000E-02
 LARGEST RESIDUAL MOMENT            1.504E-05   AT NODE          4   DOF  5
   INSTANCE:                                                                                 
 LARGEST INCREMENT OF ROTATION      4.479E-03   AT NODE          4   DOF  4
   INSTANCE: {assembly node}                                                                 
 LARGEST CORRECTION TO ROTATION     9.810E-05   AT NODE          4   DOF  5
   INSTANCE: {assembly node}                                                                 
          THE MOMENT    IS ZERO EVERYWHERE BUT THE MOMENT    RESIDUAL OR
          THE ROTATION CORRECTION IS NON-ZERO

 AVERAGE CAV. VOL.                  1.333E-02   TIME AVG. CAV. VOL.   1.333E-02
 ALL CAV. VOL. RESIDUALS ARE ZERO
 LARGEST INCREMENT OF H.PRESS.      1.000E-05   AT NODE          3   DOF  8
   INSTANCE: {assembly node}                                                                 
 LARGEST CORRECTION TO H.PRESS.     9.559E-36   AT NODE          3   DOF  8
   INSTANCE: {assembly node}                                                                 
          THE CAV. VOL. EQUILIBRIUM EQUATIONS HAVE CONVERGED

  NUMBER OF EQUATIONS =     13054     NUMBER OF RHS =    1
  NUMBER OF FLOATING PT. OPERATIONS =  6.82E+08

     CHECK POINT   START OF SOLVER    

     CHECK POINT  END OF SOLVER       

       ELAPSED USER TIME (SEC)      =  0.15000    
       ELAPSED SYSTEM TIME (SEC)    =  2.00000E-02
       ELAPSED TOTAL CPU TIME (SEC) =  0.17000    
       ELAPSED WALLCLOCK TIME (SEC) =          0
 

 ***WARNING: SOLVER PROBLEM. NUMERICAL SINGULARITY WHEN PROCESSING NODE 
             ASSEMBLY.4 D.O.F. 1 RATIO = 1.89852E+15.
 

 ***WARNING: SOLVER PROBLEM. NUMERICAL SINGULARITY WHEN PROCESSING NODE 
             ASSEMBLY.4 D.O.F. 2 RATIO = 2.57730E+15.
 

 ***WARNING: SOLVER PROBLEM. NUMERICAL SINGULARITY WHEN PROCESSING NODE 
             ASSEMBLY.4 D.O.F. 3 RATIO = 2.72410E+15.

               CONVERGENCE CHECKS FOR EQUILIBRIUM ITERATION     3


 AVERAGE FORCE                      2.366E-06   TIME AVG. FORCE       1.690E-06
 LARGEST RESIDUAL FORCE             1.661E-08   AT NODE        863   DOF  1
   INSTANCE: SE_SKIN-1                                                                       
 LARGEST INCREMENT OF DISP.         -2.70       AT NODE       3393   DOF  3
   INSTANCE: SE_SKIN-1                                                                       
 LARGEST CORRECTION TO DISP.        1.972E-03   AT NODE       4197   DOF  2
   INSTANCE: SE_SKIN-1                                                                       
          FORCE     EQUILIBRIUM NOT ACHIEVED WITHIN TOLERANCE.

 AVERAGE MOMENT                      0.00       TIME AVG. MOMENT      1.000E-02
 LARGEST RESIDUAL MOMENT           -6.763E-08   AT NODE          4   DOF  5
   INSTANCE:                                                                                 
 LARGEST INCREMENT OF ROTATION      4.493E-03   AT NODE          4   DOF  4
   INSTANCE: {assembly node}                                                                 
 LARGEST CORRECTION TO ROTATION     1.380E-05   AT NODE          4   DOF  4
   INSTANCE: {assembly node}                                                                 
          THERE IS ZERO MOMENT    EVERYWHERE

 AVERAGE CAV. VOL.                  1.333E-02   TIME AVG. CAV. VOL.   1.333E-02
 ALL CAV. VOL. RESIDUALS ARE ZERO
 LARGEST INCREMENT OF H.PRESS.      1.000E-05   AT NODE          3   DOF  8
   INSTANCE: {assembly node}                                                                 
 LARGEST CORRECTION TO H.PRESS.     9.538E-36   AT NODE          3   DOF  8
   INSTANCE: {assembly node}                                                                 
          THE CAV. VOL. EQUILIBRIUM EQUATIONS HAVE CONVERGED

  NUMBER OF EQUATIONS =     13054     NUMBER OF RHS =    1
  NUMBER OF FLOATING PT. OPERATIONS =  6.82E+08

     CHECK POINT   START OF SOLVER    

     CHECK POINT  END OF SOLVER       

       ELAPSED USER TIME (SEC)      =  0.15000    
       ELAPSED SYSTEM TIME (SEC)    =  3.00000E-02
       ELAPSED TOTAL CPU TIME (SEC) =  0.18000    
       ELAPSED WALLCLOCK TIME (SEC) =          0
 

 ***WARNING: SOLVER PROBLEM. NUMERICAL SINGULARITY WHEN PROCESSING NODE 
             ASSEMBLY.4 D.O.F. 1 RATIO = 4.18792E+15.
 

 ***WARNING: SOLVER PROBLEM. NUMERICAL SINGULARITY WHEN PROCESSING NODE 
             ASSEMBLY.4 D.O.F. 2 RATIO = 678.531E+12  .
 

 ***WARNING: SOLVER PROBLEM. NUMERICAL SINGULARITY WHEN PROCESSING NODE 
             ASSEMBLY.4 D.O.F. 3 RATIO = 2.08158E+15.

               CONVERGENCE CHECKS FOR EQUILIBRIUM ITERATION     4


 AVERAGE FORCE                      2.366E-06   TIME AVG. FORCE       1.690E-06
 LARGEST RESIDUAL FORCE            -2.724E-11   AT NODE       4198   DOF  3
   INSTANCE: SE_SKIN-1                                                                       
 LARGEST INCREMENT OF DISP.         -2.70       AT NODE       3393   DOF  3
   INSTANCE: SE_SKIN-1                                                                       
 LARGEST CORRECTION TO DISP.       -5.097E-04   AT NODE       3879   DOF  1
   INSTANCE: SE_SKIN-1                                                                       
          THE FORCE     EQUILIBRIUM EQUATIONS HAVE CONVERGED

 AVERAGE MOMENT                      0.00       TIME AVG. MOMENT      1.000E-02
 LARGEST RESIDUAL MOMENT            6.354E-11   AT NODE          4   DOF  5
   INSTANCE:                                                                                 
 LARGEST INCREMENT OF ROTATION      4.492E-03   AT NODE          4   DOF  4
   INSTANCE: {assembly node}                                                                 
 LARGEST CORRECTION TO ROTATION    -5.304E-07   AT NODE          4   DOF  4
   INSTANCE: {assembly node}                                                                 
          THERE IS ZERO MOMENT    EVERYWHERE

 AVERAGE CAV. VOL.                  1.333E-02   TIME AVG. CAV. VOL.   1.333E-02
 ALL CAV. VOL. RESIDUALS ARE ZERO
 LARGEST INCREMENT OF H.PRESS.      1.000E-05   AT NODE          3   DOF  8
   INSTANCE: {assembly node}                                                                 
 LARGEST CORRECTION TO H.PRESS.     9.538E-36   AT NODE          3   DOF  8
   INSTANCE: {assembly node}                                                                 
          THE CAV. VOL. EQUILIBRIUM EQUATIONS HAVE CONVERGED

 ITERATION SUMMARY FOR THE INCREMENT:   4 TOTAL ITERATIONS, OF WHICH
   0 ARE SEVERE DISCONTINUITY ITERATIONS AND  4 ARE EQUILIBRIUM ITERATIONS.

 TIME INCREMENT COMPLETED   1.00    ,  FRACTION OF STEP COMPLETED  0.300    
 STEP TIME COMPLETED        3.00    ,  TOTAL TIME COMPLETED         3.00    


  INCREMENT     4 STARTS. ATTEMPT NUMBER  1, TIME INCREMENT   1.00    

  NUMBER OF EQUATIONS =     13054     NUMBER OF RHS =    1
  NUMBER OF FLOATING PT. OPERATIONS =  6.82E+08

     CHECK POINT   START OF SOLVER    

     CHECK POINT  END OF SOLVER       

       ELAPSED USER TIME (SEC)      =  0.16000    
       ELAPSED SYSTEM TIME (SEC)    =   0.0000    
       ELAPSED TOTAL CPU TIME (SEC) =  0.16000    
       ELAPSED WALLCLOCK TIME (SEC) =          0
 

 ***WARNING: SOLVER PROBLEM. NUMERICAL SINGULARITY WHEN PROCESSING NODE 
             ASSEMBLY.4 D.O.F. 1 RATIO = 458.973E+12  .
 

 ***WARNING: SOLVER PROBLEM. NUMERICAL SINGULARITY WHEN PROCESSING NODE 
             ASSEMBLY.4 D.O.F. 2 RATIO = 1.05172E+15.
 

 ***WARNING: SOLVER PROBLEM. NUMERICAL SINGULARITY WHEN PROCESSING NODE 
             ASSEMBLY.4 D.O.F. 3 RATIO = 4.93365E+15.

               CONVERGENCE CHECKS FOR EQUILIBRIUM ITERATION     1


 AVERAGE FORCE                      3.064E-06   TIME AVG. FORCE       2.034E-06
 LARGEST RESIDUAL FORCE            -1.664E-03   AT NODE          4   DOF  3
   INSTANCE:                                                                                 
 LARGEST INCREMENT OF DISP.         -2.89       AT NODE       3393   DOF  3
   INSTANCE: SE_SKIN-1                                                                       
 LARGEST CORRECTION TO DISP.        0.270       AT NODE        448   DOF  2
   INSTANCE: ES_FACE-1                                                                       
          FORCE     EQUILIBRIUM NOT ACHIEVED WITHIN TOLERANCE.

 AVERAGE MOMENT                      0.00       TIME AVG. MOMENT      1.000E-02
 LARGEST RESIDUAL MOMENT           -1.028E-02   AT NODE          4   DOF  4
   INSTANCE:                                                                                 
 LARGEST INCREMENT OF ROTATION      5.068E-03   AT NODE          4   DOF  4
   INSTANCE: {assembly node}                                                                 
 LARGEST CORRECTION TO ROTATION     5.760E-04   AT NODE          4   DOF  4
   INSTANCE: {assembly node}                                                                 
          THE MOMENT    IS ZERO EVERYWHERE BUT THE MOMENT    RESIDUAL OR
          THE ROTATION CORRECTION IS NON-ZERO

 AVERAGE CAV. VOL.                  1.333E-02   TIME AVG. CAV. VOL.   1.333E-02
 ALL CAV. VOL. RESIDUALS ARE ZERO
 LARGEST INCREMENT OF H.PRESS.      1.000E-05   AT NODE          3   DOF  8
   INSTANCE: {assembly node}                                                                 
 LARGEST CORRECTION TO H.PRESS.    -3.388E-21   AT NODE          3   DOF  8
   INSTANCE: {assembly node}                                                                 
          THE CAV. VOL. EQUILIBRIUM RESPONSE WAS LINEAR IN THIS INCREMENT

  NUMBER OF EQUATIONS =     13054     NUMBER OF RHS =    1
  NUMBER OF FLOATING PT. OPERATIONS =  6.82E+08

     CHECK POINT   START OF SOLVER    

     CHECK POINT  END OF SOLVER       

       ELAPSED USER TIME (SEC)      =  0.16000    
       ELAPSED SYSTEM TIME (SEC)    =  1.00000E-02
       ELAPSED TOTAL CPU TIME (SEC) =  0.17000    
       ELAPSED WALLCLOCK TIME (SEC) =          0
 

 ***WARNING: THE SYSTEM MATRIX HAS 1 NEGATIVE EIGENVALUES.
             EXPLANATIONS ARE SUGGESTED AFTER THE FIRST OCCURRENCE OF THIS MESSAGE.
 

 ***WARNING: SOLVER PROBLEM. NUMERICAL SINGULARITY WHEN PROCESSING NODE 
             ASSEMBLY.4 D.O.F. 1 RATIO = 329.577E+12  .
 

 ***WARNING: SOLVER PROBLEM. NUMERICAL SINGULARITY WHEN PROCESSING NODE 
             ASSEMBLY.4 D.O.F. 2 RATIO = 6.91497E+15.
 

 ***WARNING: SOLVER PROBLEM. NUMERICAL SINGULARITY WHEN PROCESSING NODE 
             ASSEMBLY.4 D.O.F. 3 RATIO = 2.24529E+15.

               CONVERGENCE CHECKS FOR EQUILIBRIUM ITERATION     2


 AVERAGE FORCE                      2.989E-06   TIME AVG. FORCE       2.015E-06
 LARGEST RESIDUAL FORCE            -1.585E-06   AT NODE          4   DOF  3
   INSTANCE:                                                                                 
 LARGEST INCREMENT OF DISP.         -2.89       AT NODE       3393   DOF  3
   INSTANCE: SE_SKIN-1                                                                       
 LARGEST CORRECTION TO DISP.       -4.995E-03   AT NODE        711   DOF  3
   INSTANCE: SE_SKIN-1                                                                       
          FORCE     EQUILIBRIUM NOT ACHIEVED WITHIN TOLERANCE.

 AVERAGE MOMENT                      0.00       TIME AVG. MOMENT      1.000E-02
 LARGEST RESIDUAL MOMENT           -1.047E-05   AT NODE          4   DOF  4
   INSTANCE:                                                                                 
 LARGEST INCREMENT OF ROTATION      5.075E-03   AT NODE          4   DOF  4
   INSTANCE: {assembly node}                                                                 
 LARGEST CORRECTION TO ROTATION     6.548E-06   AT NODE          4   DOF  4
   INSTANCE: {assembly node}                                                                 
          THE MOMENT    IS ZERO EVERYWHERE BUT THE MOMENT    RESIDUAL OR
          THE ROTATION CORRECTION IS NON-ZERO

 AVERAGE CAV. VOL.                  1.333E-02   TIME AVG. CAV. VOL.   1.333E-02
 ALL CAV. VOL. RESIDUALS ARE ZERO
 LARGEST INCREMENT OF H.PRESS.      1.000E-05   AT NODE          3   DOF  8
   INSTANCE: {assembly node}                                                                 
 LARGEST CORRECTION TO H.PRESS.     1.080E-35   AT NODE          3   DOF  8
   INSTANCE: {assembly node}                                                                 
          THE CAV. VOL. EQUILIBRIUM EQUATIONS HAVE CONVERGED

  NUMBER OF EQUATIONS =     13054     NUMBER OF RHS =    1
  NUMBER OF FLOATING PT. OPERATIONS =  6.82E+08

     CHECK POINT   START OF SOLVER    

     CHECK POINT  END OF SOLVER       

       ELAPSED USER TIME (SEC)      =  0.15000    
       ELAPSED SYSTEM TIME (SEC)    =  1.00000E-02
       ELAPSED TOTAL CPU TIME (SEC) =  0.16000    
       ELAPSED WALLCLOCK TIME (SEC) =          0
 

 ***WARNING: SOLVER PROBLEM. NUMERICAL SINGULARITY WHEN PROCESSING NODE 
             ASSEMBLY.4 D.O.F. 1 RATIO = 1.36091E+15.
 

 ***WARNING: SOLVER PROBLEM. NUMERICAL SINGULARITY WHEN PROCESSING NODE 
             ASSEMBLY.4 D.O.F. 2 RATIO = 1.86080E+15.
 

 ***WARNING: SOLVER PROBLEM. NUMERICAL SINGULARITY WHEN PROCESSING NODE 
             ASSEMBLY.4 D.O.F. 3 RATIO = 690.132E+12  .

               CONVERGENCE CHECKS FOR EQUILIBRIUM ITERATION     3


 AVERAGE FORCE                      2.980E-06   TIME AVG. FORCE       2.013E-06
 LARGEST RESIDUAL FORCE             5.688E-10   AT NODE          4   DOF  3
   INSTANCE:                                                                                 
 LARGEST INCREMENT OF DISP.         -2.89       AT NODE       3393   DOF  3
   INSTANCE: SE_SKIN-1                                                                       
 LARGEST CORRECTION TO DISP.       -7.932E-04   AT NODE       4116   DOF  2
   INSTANCE: SE_SKIN-1                                                                       
          THE FORCE     EQUILIBRIUM EQUATIONS HAVE CONVERGED

 AVERAGE MOMENT                      0.00       TIME AVG. MOMENT      1.000E-02
 LARGEST RESIDUAL MOMENT           -4.032E-09   AT NODE          4   DOF  5
   INSTANCE:                                                                                 
 LARGEST INCREMENT OF ROTATION      5.078E-03   AT NODE          4   DOF  4
   INSTANCE: {assembly node}                                                                 
 LARGEST CORRECTION TO ROTATION     3.522E-06   AT NODE          4   DOF  4
   INSTANCE: {assembly node}                                                                 
          THERE IS ZERO MOMENT    EVERYWHERE

 AVERAGE CAV. VOL.                  1.333E-02   TIME AVG. CAV. VOL.   1.333E-02
 ALL CAV. VOL. RESIDUALS ARE ZERO
 LARGEST INCREMENT OF H.PRESS.      1.000E-05   AT NODE          3   DOF  8
   INSTANCE: {assembly node}                                                                 
 LARGEST CORRECTION TO H.PRESS.     1.080E-35   AT NODE          3   DOF  8
   INSTANCE: {assembly node}                                                                 
          THE CAV. VOL. EQUILIBRIUM EQUATIONS HAVE CONVERGED

 ITERATION SUMMARY FOR THE INCREMENT:   3 TOTAL ITERATIONS, OF WHICH
   0 ARE SEVERE DISCONTINUITY ITERATIONS AND  3 ARE EQUILIBRIUM ITERATIONS.

 TIME INCREMENT COMPLETED   1.00    ,  FRACTION OF STEP COMPLETED  0.400    
 STEP TIME COMPLETED        4.00    ,  TOTAL TIME COMPLETED         4.00    


  INCREMENT     5 STARTS. ATTEMPT NUMBER  1, TIME INCREMENT   1.00    

  NUMBER OF EQUATIONS =     13054     NUMBER OF RHS =    1
  NUMBER OF FLOATING PT. OPERATIONS =  6.82E+08

     CHECK POINT   START OF SOLVER    

     CHECK POINT  END OF SOLVER       

       ELAPSED USER TIME (SEC)      =  0.16000    
       ELAPSED SYSTEM TIME (SEC)    =  1.00000E-02
       ELAPSED TOTAL CPU TIME (SEC) =  0.17000    
       ELAPSED WALLCLOCK TIME (SEC) =          0
 

 ***WARNING: SOLVER PROBLEM. NUMERICAL SINGULARITY WHEN PROCESSING NODE 
             ASSEMBLY.4 D.O.F. 1 RATIO = 2.58092E+15.
 

 ***WARNING: SOLVER PROBLEM. NUMERICAL SINGULARITY WHEN PROCESSING NODE 
             ASSEMBLY.4 D.O.F. 2 RATIO = 547.791E+12  .
 

 ***WARNING: SOLVER PROBLEM. NUMERICAL SINGULARITY WHEN PROCESSING NODE 
             ASSEMBLY.4 D.O.F. 3 RATIO = 2.23259E+15.

               CONVERGENCE CHECKS FOR EQUILIBRIUM ITERATION     1


 AVERAGE FORCE                      3.660E-06   TIME AVG. FORCE       2.342E-06
 LARGEST RESIDUAL FORCE            -3.657E-03   AT NODE          4   DOF  3
   INSTANCE:                                                                                 
 LARGEST INCREMENT OF DISP.         -2.75       AT NODE       3393   DOF  3
   INSTANCE: SE_SKIN-1                                                                       
 LARGEST CORRECTION TO DISP.        0.298       AT NODE       3558   DOF  1
   INSTANCE: SE_SKIN-1                                                                       
          FORCE     EQUILIBRIUM NOT ACHIEVED WITHIN TOLERANCE.

 AVERAGE MOMENT                      0.00       TIME AVG. MOMENT      1.000E-02
 LARGEST RESIDUAL MOMENT            2.296E-02   AT NODE          4   DOF  5
   INSTANCE:                                                                                 
 LARGEST INCREMENT OF ROTATION      5.758E-03   AT NODE          4   DOF  4
   INSTANCE: {assembly node}                                                                 
 LARGEST CORRECTION TO ROTATION     6.805E-04   AT NODE          4   DOF  4
   INSTANCE: {assembly node}                                                                 
          THE MOMENT    IS ZERO EVERYWHERE BUT THE MOMENT    RESIDUAL OR
          THE ROTATION CORRECTION IS NON-ZERO

 AVERAGE CAV. VOL.                  1.333E-02   TIME AVG. CAV. VOL.   1.333E-02
 ALL CAV. VOL. RESIDUALS ARE ZERO
 LARGEST INCREMENT OF H.PRESS.      1.000E-05   AT NODE          3   DOF  8
   INSTANCE: {assembly node}                                                                 
 LARGEST CORRECTION TO H.PRESS.     1.187E-35   AT NODE          3   DOF  8
   INSTANCE: {assembly node}                                                                 
          THE CAV. VOL. EQUILIBRIUM RESPONSE WAS LINEAR IN THIS INCREMENT

  NUMBER OF EQUATIONS =     13054     NUMBER OF RHS =    1
  NUMBER OF FLOATING PT. OPERATIONS =  6.82E+08

     CHECK POINT   START OF SOLVER    

     CHECK POINT  END OF SOLVER       

       ELAPSED USER TIME (SEC)      =  0.16000    
       ELAPSED SYSTEM TIME (SEC)    =  1.00000E-02
       ELAPSED TOTAL CPU TIME (SEC) =  0.17000    
       ELAPSED WALLCLOCK TIME (SEC) =          0
 

 ***WARNING: THE SYSTEM MATRIX HAS 1 NEGATIVE EIGENVALUES.
             EXPLANATIONS ARE SUGGESTED AFTER THE FIRST OCCURRENCE OF THIS MESSAGE.
 

 ***WARNING: SOLVER PROBLEM. NUMERICAL SINGULARITY WHEN PROCESSING NODE 
             ASSEMBLY.4 D.O.F. 1 RATIO = 654.860E+12  .
 

 ***WARNING: SOLVER PROBLEM. NUMERICAL SINGULARITY WHEN PROCESSING NODE 
             ASSEMBLY.4 D.O.F. 2 RATIO = 980.737E+12  .
 

 ***WARNING: SOLVER PROBLEM. NUMERICAL SINGULARITY WHEN PROCESSING NODE 
             ASSEMBLY.4 D.O.F. 3 RATIO = 2.61630E+15.

               CONVERGENCE CHECKS FOR EQUILIBRIUM ITERATION     2


 AVERAGE FORCE                      3.571E-06   TIME AVG. FORCE       2.324E-06
 LARGEST RESIDUAL FORCE            -2.418E-06   AT NODE          4   DOF  3
   INSTANCE:                                                                                 
 LARGEST INCREMENT OF DISP.         -2.76       AT NODE       3393   DOF  3
   INSTANCE: SE_SKIN-1                                                                       
 LARGEST CORRECTION TO DISP.       -1.268E-02   AT NODE        775   DOF  3
   INSTANCE: SE_SKIN-1                                                                       
          FORCE     EQUILIBRIUM NOT ACHIEVED WITHIN TOLERANCE.

 AVERAGE MOMENT                      0.00       TIME AVG. MOMENT      1.000E-02
 LARGEST RESIDUAL MOMENT            2.078E-05   AT NODE          4   DOF  5
   INSTANCE:                                                                                 
 LARGEST INCREMENT OF ROTATION      5.837E-03   AT NODE          4   DOF  4
   INSTANCE: {assembly node}                                                                 
 LARGEST CORRECTION TO ROTATION    -8.362E-05   AT NODE          4   DOF  5
   INSTANCE: {assembly node}                                                                 
          THE MOMENT    IS ZERO EVERYWHERE BUT THE MOMENT    RESIDUAL OR
          THE ROTATION CORRECTION IS NON-ZERO

 AVERAGE CAV. VOL.                  1.333E-02   TIME AVG. CAV. VOL.   1.333E-02
 ALL CAV. VOL. RESIDUALS ARE ZERO
 LARGEST INCREMENT OF H.PRESS.      1.000E-05   AT NODE          3   DOF  8
   INSTANCE: {assembly node}                                                                 
 LARGEST CORRECTION TO H.PRESS.     1.183E-35   AT NODE          3   DOF  8
   INSTANCE: {assembly node}                                                                 
          THE CAV. VOL. EQUILIBRIUM EQUATIONS HAVE CONVERGED

  NUMBER OF EQUATIONS =     13054     NUMBER OF RHS =    1
  NUMBER OF FLOATING PT. OPERATIONS =  6.82E+08

     CHECK POINT   START OF SOLVER    

     CHECK POINT  END OF SOLVER       

       ELAPSED USER TIME (SEC)      =  0.17000    
       ELAPSED SYSTEM TIME (SEC)    =  1.00000E-02
       ELAPSED TOTAL CPU TIME (SEC) =  0.18000    
       ELAPSED WALLCLOCK TIME (SEC) =          0
 

 ***WARNING: SOLVER PROBLEM. NUMERICAL SINGULARITY WHEN PROCESSING NODE 
             ASSEMBLY.4 D.O.F. 1 RATIO = 1.88875E+15.
 

 ***WARNING: SOLVER PROBLEM. NUMERICAL SINGULARITY WHEN PROCESSING NODE 
             ASSEMBLY.4 D.O.F. 2 RATIO = 341.851E+12  .
 

 ***WARNING: SOLVER PROBLEM. NUMERICAL SINGULARITY WHEN PROCESSING NODE 
             ASSEMBLY.4 D.O.F. 3 RATIO = 875.687E+12  .

               CONVERGENCE CHECKS FOR EQUILIBRIUM ITERATION     3


 AVERAGE FORCE                      3.570E-06   TIME AVG. FORCE       2.324E-06
 LARGEST RESIDUAL FORCE             3.475E-09   AT NODE          4   DOF  3
   INSTANCE:                                                                                 
 LARGEST INCREMENT OF DISP.         -2.76       AT NODE       3393   DOF  3
   INSTANCE: SE_SKIN-1                                                                       
 LARGEST CORRECTION TO DISP.        3.854E-04   AT NODE       3203   DOF  1
   INSTANCE: SE_SKIN-1                                                                       
          THE FORCE     EQUILIBRIUM EQUATIONS HAVE CONVERGED

 AVERAGE MOMENT                      0.00       TIME AVG. MOMENT      1.000E-02
 LARGEST RESIDUAL MOMENT            2.479E-08   AT NODE          4   DOF  4
   INSTANCE:                                                                                 
 LARGEST INCREMENT OF ROTATION      5.838E-03   AT NODE          4   DOF  4
   INSTANCE: {assembly node}                                                                 
 LARGEST CORRECTION TO ROTATION     2.149E-06   AT NODE          4   DOF  5
   INSTANCE: {assembly node}                                                                 
          THERE IS ZERO MOMENT    EVERYWHERE

 AVERAGE CAV. VOL.                  1.333E-02   TIME AVG. CAV. VOL.   1.333E-02
 ALL CAV. VOL. RESIDUALS ARE ZERO
 LARGEST INCREMENT OF H.PRESS.      1.000E-05   AT NODE          3   DOF  8
   INSTANCE: {assembly node}                                                                 
 LARGEST CORRECTION TO H.PRESS.     1.183E-35   AT NODE          3   DOF  8
   INSTANCE: {assembly node}                                                                 
          THE CAV. VOL. EQUILIBRIUM EQUATIONS HAVE CONVERGED

 ITERATION SUMMARY FOR THE INCREMENT:   3 TOTAL ITERATIONS, OF WHICH
   0 ARE SEVERE DISCONTINUITY ITERATIONS AND  3 ARE EQUILIBRIUM ITERATIONS.

 TIME INCREMENT COMPLETED   1.00    ,  FRACTION OF STEP COMPLETED  0.500    
 STEP TIME COMPLETED        5.00    ,  TOTAL TIME COMPLETED         5.00    


  INCREMENT     6 STARTS. ATTEMPT NUMBER  1, TIME INCREMENT   1.00    

  NUMBER OF EQUATIONS =     13054     NUMBER OF RHS =    1
  NUMBER OF FLOATING PT. OPERATIONS =  6.82E+08

     CHECK POINT   START OF SOLVER    

     CHECK POINT  END OF SOLVER       

       ELAPSED USER TIME (SEC)      =  0.16000    
       ELAPSED SYSTEM TIME (SEC)    =  2.00000E-02
       ELAPSED TOTAL CPU TIME (SEC) =  0.18000    
       ELAPSED WALLCLOCK TIME (SEC) =          0
 

 ***WARNING: SOLVER PROBLEM. NUMERICAL SINGULARITY WHEN PROCESSING NODE 
             ASSEMBLY.4 D.O.F. 1 RATIO = 1.62161E+15.
 

 ***WARNING: SOLVER PROBLEM. NUMERICAL SINGULARITY WHEN PROCESSING NODE 
             ASSEMBLY.4 D.O.F. 2 RATIO = 1.09299E+15.
 

 ***WARNING: SOLVER PROBLEM. NUMERICAL SINGULARITY WHEN PROCESSING NODE 
             ASSEMBLY.4 D.O.F. 3 RATIO = 1.64390E+15.

               CONVERGENCE CHECKS FOR EQUILIBRIUM ITERATION     1


 AVERAGE FORCE                      4.376E-06   TIME AVG. FORCE       2.666E-06
 LARGEST RESIDUAL FORCE            -8.909E-03   AT NODE          4   DOF  3
   INSTANCE:                                                                                 
 LARGEST INCREMENT OF DISP.         -2.59       AT NODE       3393   DOF  3
   INSTANCE: SE_SKIN-1                                                                       
 LARGEST CORRECTION TO DISP.       -0.650       AT NODE        223   DOF  2
   INSTANCE: ES_WALLS-1                                                                      
          FORCE     EQUILIBRIUM NOT ACHIEVED WITHIN TOLERANCE.

 AVERAGE MOMENT                      0.00       TIME AVG. MOMENT      1.000E-02
 LARGEST RESIDUAL MOMENT            5.844E-02   AT NODE          4   DOF  5
   INSTANCE:                                                                                 
 LARGEST INCREMENT OF ROTATION      6.934E-03   AT NODE          4   DOF  4
   INSTANCE: {assembly node}                                                                 
 LARGEST CORRECTION TO ROTATION     1.097E-03   AT NODE          4   DOF  4
   INSTANCE: {assembly node}                                                                 
          THE MOMENT    IS ZERO EVERYWHERE BUT THE MOMENT    RESIDUAL OR
          THE ROTATION CORRECTION IS NON-ZERO

 AVERAGE CAV. VOL.                  1.333E-02   TIME AVG. CAV. VOL.   1.333E-02
 ALL CAV. VOL. RESIDUALS ARE ZERO
 LARGEST INCREMENT OF H.PRESS.      1.000E-05   AT NODE          3   DOF  8
   INSTANCE: {assembly node}                                                                 
 LARGEST CORRECTION TO H.PRESS.     6.776E-21   AT NODE          3   DOF  8
   INSTANCE: {assembly node}                                                                 
          THE CAV. VOL. EQUILIBRIUM RESPONSE WAS LINEAR IN THIS INCREMENT

  NUMBER OF EQUATIONS =     13054     NUMBER OF RHS =    1
  NUMBER OF FLOATING PT. OPERATIONS =  6.82E+08

     CHECK POINT   START OF SOLVER    

     CHECK POINT  END OF SOLVER       

       ELAPSED USER TIME (SEC)      =  0.16000    
       ELAPSED SYSTEM TIME (SEC)    =  1.00000E-02
       ELAPSED TOTAL CPU TIME (SEC) =  0.17000    
       ELAPSED WALLCLOCK TIME (SEC) =          1
 

 ***WARNING: THE SYSTEM MATRIX HAS 1 NEGATIVE EIGENVALUES.
             EXPLANATIONS ARE SUGGESTED AFTER THE FIRST OCCURRENCE OF THIS MESSAGE.
 

 ***WARNING: SOLVER PROBLEM. NUMERICAL SINGULARITY WHEN PROCESSING NODE 
             ASSEMBLY.4 D.O.F. 1 RATIO = 6.89604E+15.
 

 ***WARNING: SOLVER PROBLEM. NUMERICAL SINGULARITY WHEN PROCESSING NODE 
             ASSEMBLY.4 D.O.F. 2 RATIO = 1.13826E+15.
 

 ***WARNING: SOLVER PROBLEM. NUMERICAL SINGULARITY WHEN PROCESSING NODE 
             ASSEMBLY.4 D.O.F. 3 RATIO = 1.72485E+15.

               CONVERGENCE CHECKS FOR EQUILIBRIUM ITERATION     2


 AVERAGE FORCE                      4.138E-06   TIME AVG. FORCE       2.626E-06
 LARGEST RESIDUAL FORCE             5.444E-07   AT NODE          4   DOF  3
   INSTANCE:                                                                                 
 LARGEST INCREMENT OF DISP.         -2.55       AT NODE       3393   DOF  3
   INSTANCE: SE_SKIN-1                                                                       
 LARGEST CORRECTION TO DISP.        0.169       AT NODE        449   DOF  1
   INSTANCE: ES_FACE-1                                                                       
          FORCE     EQUILIBRIUM NOT ACHIEVED WITHIN TOLERANCE.

 AVERAGE MOMENT                      0.00       TIME AVG. MOMENT      1.000E-02
 LARGEST RESIDUAL MOMENT            2.833E-05   AT NODE          4   DOF  5
   INSTANCE:                                                                                 
 LARGEST INCREMENT OF ROTATION      7.241E-03   AT NODE          4   DOF  4
   INSTANCE: {assembly node}                                                                 
 LARGEST CORRECTION TO ROTATION    -3.391E-04   AT NODE          4   DOF  5
   INSTANCE: {assembly node}                                                                 
          THE MOMENT    IS ZERO EVERYWHERE BUT THE MOMENT    RESIDUAL OR
          THE ROTATION CORRECTION IS NON-ZERO

 AVERAGE CAV. VOL.                  1.333E-02   TIME AVG. CAV. VOL.   1.333E-02
 ALL CAV. VOL. RESIDUALS ARE ZERO
 LARGEST INCREMENT OF H.PRESS.      1.000E-05   AT NODE          3   DOF  8
   INSTANCE: {assembly node}                                                                 
 LARGEST CORRECTION TO H.PRESS.     1.272E-35   AT NODE          3   DOF  8
   INSTANCE: {assembly node}                                                                 
          THE CAV. VOL. EQUILIBRIUM EQUATIONS HAVE CONVERGED

  NUMBER OF EQUATIONS =     13054     NUMBER OF RHS =    1
  NUMBER OF FLOATING PT. OPERATIONS =  6.82E+08

     CHECK POINT   START OF SOLVER    

     CHECK POINT  END OF SOLVER       

       ELAPSED USER TIME (SEC)      =  0.16000    
       ELAPSED SYSTEM TIME (SEC)    =  1.00000E-02
       ELAPSED TOTAL CPU TIME (SEC) =  0.17000    
       ELAPSED WALLCLOCK TIME (SEC) =          0
 

 ***WARNING: THE SYSTEM MATRIX HAS 1 NEGATIVE EIGENVALUES.
             EXPLANATIONS ARE SUGGESTED AFTER THE FIRST OCCURRENCE OF THIS MESSAGE.
 

 ***WARNING: SOLVER PROBLEM. NUMERICAL SINGULARITY WHEN PROCESSING NODE 
             ASSEMBLY.4 D.O.F. 1 RATIO = 440.867E+15  .
 

 ***WARNING: SOLVER PROBLEM. NUMERICAL SINGULARITY WHEN PROCESSING NODE 
             ASSEMBLY.4 D.O.F. 2 RATIO = 65.6254E+12 .
 

 ***WARNING: SOLVER PROBLEM. NUMERICAL SINGULARITY WHEN PROCESSING NODE 
             ASSEMBLY.4 D.O.F. 3 RATIO = 987.678E+12  .

               CONVERGENCE CHECKS FOR EQUILIBRIUM ITERATION     3


 AVERAGE FORCE                      4.139E-06   TIME AVG. FORCE       2.627E-06
 LARGEST RESIDUAL FORCE             2.307E-09   AT NODE       3102   DOF  2
   INSTANCE: SE_SKIN-1                                                                       
 LARGEST INCREMENT OF DISP.         -2.55       AT NODE       3393   DOF  3
   INSTANCE: SE_SKIN-1                                                                       
 LARGEST CORRECTION TO DISP.        3.279E-03   AT NODE       3143   DOF  1
   INSTANCE: SE_SKIN-1                                                                       
          THE FORCE     EQUILIBRIUM EQUATIONS HAVE CONVERGED

 AVERAGE MOMENT                      0.00       TIME AVG. MOMENT      1.000E-02
 LARGEST RESIDUAL MOMENT           -2.872E-08   AT NODE          4   DOF  4
   INSTANCE:                                                                                 
 LARGEST INCREMENT OF ROTATION      7.245E-03   AT NODE          4   DOF  4
   INSTANCE: {assembly node}                                                                 
 LARGEST CORRECTION TO ROTATION    -5.796E-06   AT NODE          4   DOF  6
   INSTANCE: {assembly node}                                                                 
          THERE IS ZERO MOMENT    EVERYWHERE

 AVERAGE CAV. VOL.                  1.333E-02   TIME AVG. CAV. VOL.   1.333E-02
 ALL CAV. VOL. RESIDUALS ARE ZERO
 LARGEST INCREMENT OF H.PRESS.      1.000E-05   AT NODE          3   DOF  8
   INSTANCE: {assembly node}                                                                 
 LARGEST CORRECTION TO H.PRESS.     1.272E-35   AT NODE          3   DOF  8
   INSTANCE: {assembly node}                                                                 
          THE CAV. VOL. EQUILIBRIUM EQUATIONS HAVE CONVERGED

 ITERATION SUMMARY FOR THE INCREMENT:   3 TOTAL ITERATIONS, OF WHICH
   0 ARE SEVERE DISCONTINUITY ITERATIONS AND  3 ARE EQUILIBRIUM ITERATIONS.

 TIME INCREMENT COMPLETED   1.00    ,  FRACTION OF STEP COMPLETED  0.600    
 STEP TIME COMPLETED        6.00    ,  TOTAL TIME COMPLETED         6.00    


  INCREMENT     7 STARTS. ATTEMPT NUMBER  1, TIME INCREMENT   1.00    

  NUMBER OF EQUATIONS =     13054     NUMBER OF RHS =    1
  NUMBER OF FLOATING PT. OPERATIONS =  6.82E+08

     CHECK POINT   START OF SOLVER    

     CHECK POINT  END OF SOLVER       

       ELAPSED USER TIME (SEC)      =  0.16000    
       ELAPSED SYSTEM TIME (SEC)    =   0.0000    
       ELAPSED TOTAL CPU TIME (SEC) =  0.16000    
       ELAPSED WALLCLOCK TIME (SEC) =          1
 

 ***WARNING: THE SYSTEM MATRIX HAS 1 NEGATIVE EIGENVALUES.
             EXPLANATIONS ARE SUGGESTED AFTER THE FIRST OCCURRENCE OF THIS MESSAGE.
 

 ***WARNING: SOLVER PROBLEM. NUMERICAL SINGULARITY WHEN PROCESSING NODE 
             ASSEMBLY.4 D.O.F. 1 RATIO = 2.06149E+15.
 

 ***WARNING: SOLVER PROBLEM. NUMERICAL SINGULARITY WHEN PROCESSING NODE 
             ASSEMBLY.4 D.O.F. 2 RATIO = 217.077E+15  .
 

 ***WARNING: SOLVER PROBLEM. NUMERICAL SINGULARITY WHEN PROCESSING NODE 
             ASSEMBLY.4 D.O.F. 3 RATIO = 403.812E+12  .

               CONVERGENCE CHECKS FOR EQUILIBRIUM ITERATION     1


 AVERAGE FORCE                      5.451E-06   TIME AVG. FORCE       3.030E-06
 LARGEST RESIDUAL FORCE            -2.324E-02   AT NODE          4   DOF  3
   INSTANCE:                                                                                 
 LARGEST INCREMENT OF DISP.         -5.27       AT NODE       4287   DOF  2
   INSTANCE: SE_SKIN-1                                                                       
 LARGEST CORRECTION TO DISP.         2.91       AT NODE        449   DOF  1
   INSTANCE: ES_FACE-1                                                                       
          FORCE     EQUILIBRIUM NOT ACHIEVED WITHIN TOLERANCE.

 AVERAGE MOMENT                      0.00       TIME AVG. MOMENT      1.000E-02
 LARGEST RESIDUAL MOMENT            0.157       AT NODE          4   DOF  5
   INSTANCE:                                                                                 
 LARGEST INCREMENT OF ROTATION      6.795E-03   AT NODE          4   DOF  4
   INSTANCE: {assembly node}                                                                 
 LARGEST CORRECTION TO ROTATION    -1.062E-03   AT NODE          4   DOF  6
   INSTANCE: {assembly node}                                                                 
          THE MOMENT    IS ZERO EVERYWHERE BUT THE MOMENT    RESIDUAL OR
          THE ROTATION CORRECTION IS NON-ZERO

 AVERAGE CAV. VOL.                  1.333E-02   TIME AVG. CAV. VOL.   1.333E-02
 ALL CAV. VOL. RESIDUALS ARE ZERO
 LARGEST INCREMENT OF H.PRESS.      1.000E-05   AT NODE          3   DOF  8
   INSTANCE: {assembly node}                                                                 
 LARGEST CORRECTION TO H.PRESS.    -6.776E-21   AT NODE          3   DOF  8
   INSTANCE: {assembly node}                                                                 
          THE CAV. VOL. EQUILIBRIUM RESPONSE WAS LINEAR IN THIS INCREMENT

  NUMBER OF EQUATIONS =     13054     NUMBER OF RHS =    1
  NUMBER OF FLOATING PT. OPERATIONS =  6.82E+08

     CHECK POINT   START OF SOLVER    

     CHECK POINT  END OF SOLVER       

       ELAPSED USER TIME (SEC)      =  0.16000    
       ELAPSED SYSTEM TIME (SEC)    =  1.00000E-02
       ELAPSED TOTAL CPU TIME (SEC) =  0.17000    
       ELAPSED WALLCLOCK TIME (SEC) =          0
 

 ***WARNING: THE SYSTEM MATRIX HAS 1 NEGATIVE EIGENVALUES.
             EXPLANATIONS ARE SUGGESTED AFTER THE FIRST OCCURRENCE OF THIS MESSAGE.
 

 ***WARNING: SOLVER PROBLEM. NUMERICAL SINGULARITY WHEN PROCESSING NODE 
             ASSEMBLY.4 D.O.F. 1 RATIO = 2.19968E+15.
 

 ***WARNING: SOLVER PROBLEM. NUMERICAL SINGULARITY WHEN PROCESSING NODE 
             ASSEMBLY.4 D.O.F. 2 RATIO = 363.043E+12  .
 

 ***WARNING: SOLVER PROBLEM. NUMERICAL SINGULARITY WHEN PROCESSING NODE 
             ASSEMBLY.4 D.O.F. 3 RATIO = 2.68007E+15.

               CONVERGENCE CHECKS FOR EQUILIBRIUM ITERATION     2


 AVERAGE FORCE                      4.794E-06   TIME AVG. FORCE       2.936E-06
[...]

               CONVERGENCE CHECKS FOR EQUILIBRIUM ITERATION     2


 AVERAGE FORCE                      1.048E-05   TIME AVG. FORCE       9.695E-06
 LARGEST RESIDUAL FORCE             8.185E-08   AT NODE       3208   DOF  3
   INSTANCE: SE_SKIN-1                                                                       
 LARGEST INCREMENT OF DISP.          3.24       AT NODE       4216   DOF  2
   INSTANCE: SE_SKIN-1                                                                       
 LARGEST CORRECTION TO DISP.       -5.943E-04   AT NODE       1944   DOF  2
   INSTANCE: SE_SKIN-1                                                                       
          FORCE     EQUILIBRIUM NOT ACHIEVED WITHIN TOLERANCE.

 AVERAGE MOMENT                      0.00       TIME AVG. MOMENT      1.000E-02
 LARGEST RESIDUAL MOMENT             0.00       AT NODE          4   DOF  5
   INSTANCE:                                                                                 
 LARGEST INCREMENT OF ROTATION     -7.562E-03   AT NODE          4   DOF  4
   INSTANCE: {assembly node}                                                                 
 LARGEST CORRECTION TO ROTATION     1.744E-42   AT NODE          4   DOF  4
   INSTANCE: {assembly node}                                                                 
          THERE IS ZERO MOMENT    EVERYWHERE

 AVERAGE CAV. VOL.                  1.333E-02   TIME AVG. CAV. VOL.   1.333E-02
 ALL CAV. VOL. RESIDUALS ARE ZERO
 LARGEST INCREMENT OF H.PRESS.      5.000E-06   AT NODE          3   DOF  8
   INSTANCE: {assembly node}                                                                 
 LARGEST CORRECTION TO H.PRESS.     2.178E-35   AT NODE          3   DOF  8
   INSTANCE: {assembly node}                                                                 
          THE CAV. VOL. EQUILIBRIUM EQUATIONS HAVE CONVERGED

  NUMBER OF EQUATIONS =     13054     NUMBER OF RHS =    1
  NUMBER OF FLOATING PT. OPERATIONS =  6.82E+08

     CHECK POINT   START OF SOLVER    

     CHECK POINT  END OF SOLVER       

       ELAPSED USER TIME (SEC)      =  0.16000    
       ELAPSED SYSTEM TIME (SEC)    =  1.00000E-02
       ELAPSED TOTAL CPU TIME (SEC) =  0.17000    
       ELAPSED WALLCLOCK TIME (SEC) =          0

               CONVERGENCE CHECKS FOR EQUILIBRIUM ITERATION     3


 AVERAGE FORCE                      1.048E-05   TIME AVG. FORCE       9.695E-06
 LARGEST RESIDUAL FORCE             9.184E-10   AT NODE       3206   DOF  1
   INSTANCE: SE_SKIN-1                                                                       
 LARGEST INCREMENT OF DISP.          3.24       AT NODE       4216   DOF  2
   INSTANCE: SE_SKIN-1                                                                       
 LARGEST CORRECTION TO DISP.        1.979E-05   AT NODE        351   DOF  3
   INSTANCE: SE_SKIN-1                                                                       
          THE FORCE     EQUILIBRIUM EQUATIONS HAVE CONVERGED

 AVERAGE MOMENT                      0.00       TIME AVG. MOMENT      1.000E-02
 LARGEST RESIDUAL MOMENT             0.00       AT NODE          4   DOF  5
   INSTANCE:                                                                                 
 LARGEST INCREMENT OF ROTATION     -7.562E-03   AT NODE          4   DOF  4
   INSTANCE: {assembly node}                                                                 
 LARGEST CORRECTION TO ROTATION    -2.011E-48   AT NODE          4   DOF  4
   INSTANCE: {assembly node}                                                                 
          THERE IS ZERO MOMENT    EVERYWHERE

 AVERAGE CAV. VOL.                  1.333E-02   TIME AVG. CAV. VOL.   1.333E-02
 ALL CAV. VOL. RESIDUALS ARE ZERO
 LARGEST INCREMENT OF H.PRESS.      5.000E-06   AT NODE          3   DOF  8
   INSTANCE: {assembly node}                                                                 
 LARGEST CORRECTION TO H.PRESS.     2.178E-35   AT NODE          3   DOF  8
   INSTANCE: {assembly node}                                                                 
          THE CAV. VOL. EQUILIBRIUM EQUATIONS HAVE CONVERGED

 ITERATION SUMMARY FOR THE INCREMENT:   3 TOTAL ITERATIONS, OF WHICH
   0 ARE SEVERE DISCONTINUITY ITERATIONS AND  3 ARE EQUILIBRIUM ITERATIONS.

 TIME INCREMENT COMPLETED   1.00    ,  FRACTION OF STEP COMPLETED  0.800    
 STEP TIME COMPLETED        8.00    ,  TOTAL TIME COMPLETED         28.0    


  INCREMENT     9 STARTS. ATTEMPT NUMBER  1, TIME INCREMENT   1.00    

  NUMBER OF EQUATIONS =     13054     NUMBER OF RHS =    1
  NUMBER OF FLOATING PT. OPERATIONS =  6.82E+08

     CHECK POINT   START OF SOLVER    

     CHECK POINT  END OF SOLVER       

       ELAPSED USER TIME (SEC)      =  0.16000    
       ELAPSED SYSTEM TIME (SEC)    =  1.00000E-02
       ELAPSED TOTAL CPU TIME (SEC) =  0.17000    
       ELAPSED WALLCLOCK TIME (SEC) =          0

               CONVERGENCE CHECKS FOR EQUILIBRIUM ITERATION     1


 AVERAGE FORCE                      1.075E-05   TIME AVG. FORCE       9.812E-06
 LARGEST RESIDUAL FORCE             3.873E-05   AT NODE       1825   DOF  3
   INSTANCE: SE_SKIN-1                                                                       
 LARGEST INCREMENT OF DISP.          3.24       AT NODE       4216   DOF  2
   INSTANCE: SE_SKIN-1                                                                       
 LARGEST CORRECTION TO DISP.       -6.195E-04   AT NODE        449   DOF  2
   INSTANCE: ES_FACE-1                                                                       
          FORCE     EQUILIBRIUM NOT ACHIEVED WITHIN TOLERANCE.

 AVERAGE MOMENT                      0.00       TIME AVG. MOMENT      1.000E-02
 LARGEST RESIDUAL MOMENT             0.00       AT NODE          4   DOF  5
   INSTANCE:                                                                                 
 LARGEST INCREMENT OF ROTATION     -7.562E-03   AT NODE          4   DOF  4
   INSTANCE: {assembly node}                                                                 
 LARGEST CORRECTION TO ROTATION     1.084E-19   AT NODE          4   DOF  5
   INSTANCE: {assembly node}                                                                 
          THERE IS ZERO MOMENT    EVERYWHERE

 AVERAGE CAV. VOL.                  1.333E-02   TIME AVG. CAV. VOL.   1.333E-02
 ALL CAV. VOL. RESIDUALS ARE ZERO
 LARGEST INCREMENT OF H.PRESS.      5.000E-06   AT NODE          3   DOF  8
   INSTANCE: {assembly node}                                                                 
 LARGEST CORRECTION TO H.PRESS.     2.711E-20   AT NODE          3   DOF  8
   INSTANCE: {assembly node}                                                                 
          THE CAV. VOL. EQUILIBRIUM RESPONSE WAS LINEAR IN THIS INCREMENT

  NUMBER OF EQUATIONS =     13054     NUMBER OF RHS =    1
  NUMBER OF FLOATING PT. OPERATIONS =  6.82E+08

     CHECK POINT   START OF SOLVER    

     CHECK POINT  END OF SOLVER       

       ELAPSED USER TIME (SEC)      =  0.17000    
       ELAPSED SYSTEM TIME (SEC)    =  1.00000E-02
       ELAPSED TOTAL CPU TIME (SEC) =  0.18000    
       ELAPSED WALLCLOCK TIME (SEC) =          0

               CONVERGENCE CHECKS FOR EQUILIBRIUM ITERATION     2


 AVERAGE FORCE                      1.070E-05   TIME AVG. FORCE       9.807E-06
 LARGEST RESIDUAL FORCE             8.236E-08   AT NODE       3208   DOF  3
   INSTANCE: SE_SKIN-1                                                                       
 LARGEST INCREMENT OF DISP.          3.24       AT NODE       4216   DOF  2
   INSTANCE: SE_SKIN-1                                                                       
 LARGEST CORRECTION TO DISP.       -5.941E-04   AT NODE       1944   DOF  2
   INSTANCE: SE_SKIN-1                                                                       
          FORCE     EQUILIBRIUM NOT ACHIEVED WITHIN TOLERANCE.

 AVERAGE MOMENT                      0.00       TIME AVG. MOMENT      1.000E-02
 LARGEST RESIDUAL MOMENT             0.00       AT NODE          4   DOF  5
   INSTANCE:                                                                                 
 LARGEST INCREMENT OF ROTATION     -7.562E-03   AT NODE          4   DOF  4
   INSTANCE: {assembly node}                                                                 
 LARGEST CORRECTION TO ROTATION     1.741E-42   AT NODE          4   DOF  4
   INSTANCE: {assembly node}                                                                 
          THERE IS ZERO MOMENT    EVERYWHERE

 AVERAGE CAV. VOL.                  1.333E-02   TIME AVG. CAV. VOL.   1.333E-02
 ALL CAV. VOL. RESIDUALS ARE ZERO
 LARGEST INCREMENT OF H.PRESS.      5.000E-06   AT NODE          3   DOF  8
   INSTANCE: {assembly node}                                                                 
 LARGEST CORRECTION TO H.PRESS.     2.211E-35   AT NODE          3   DOF  8
   INSTANCE: {assembly node}                                                                 
          THE CAV. VOL. EQUILIBRIUM EQUATIONS HAVE CONVERGED

  NUMBER OF EQUATIONS =     13054     NUMBER OF RHS =    1
  NUMBER OF FLOATING PT. OPERATIONS =  6.82E+08

     CHECK POINT   START OF SOLVER    

     CHECK POINT  END OF SOLVER       

       ELAPSED USER TIME (SEC)      =  0.15000    
       ELAPSED SYSTEM TIME (SEC)    =  1.00000E-02
       ELAPSED TOTAL CPU TIME (SEC) =  0.16000    
       ELAPSED WALLCLOCK TIME (SEC) =          0

               CONVERGENCE CHECKS FOR EQUILIBRIUM ITERATION     3


 AVERAGE FORCE                      1.070E-05   TIME AVG. FORCE       9.807E-06
 LARGEST RESIDUAL FORCE            -9.371E-10   AT NODE       3206   DOF  2
   INSTANCE: SE_SKIN-1                                                                       
 LARGEST INCREMENT OF DISP.          3.24       AT NODE       4216   DOF  2
   INSTANCE: SE_SKIN-1                                                                       
 LARGEST CORRECTION TO DISP.        1.957E-05   AT NODE        351   DOF  3
   INSTANCE: SE_SKIN-1                                                                       
          THE FORCE     EQUILIBRIUM EQUATIONS HAVE CONVERGED

 AVERAGE MOMENT                      0.00       TIME AVG. MOMENT      1.000E-02
 LARGEST RESIDUAL MOMENT             0.00       AT NODE          4   DOF  5
   INSTANCE:                                                                                 
 LARGEST INCREMENT OF ROTATION     -7.562E-03   AT NODE          4   DOF  4
   INSTANCE: {assembly node}                                                                 
 LARGEST CORRECTION TO ROTATION    -2.038E-48   AT NODE          4   DOF  4
   INSTANCE: {assembly node}                                                                 
          THERE IS ZERO MOMENT    EVERYWHERE

 AVERAGE CAV. VOL.                  1.333E-02   TIME AVG. CAV. VOL.   1.333E-02
 ALL CAV. VOL. RESIDUALS ARE ZERO
 LARGEST INCREMENT OF H.PRESS.      5.000E-06   AT NODE          3   DOF  8
   INSTANCE: {assembly node}                                                                 
 LARGEST CORRECTION TO H.PRESS.     2.211E-35   AT NODE          3   DOF  8
   INSTANCE: {assembly node}                                                                 
          THE CAV. VOL. EQUILIBRIUM EQUATIONS HAVE CONVERGED

 ITERATION SUMMARY FOR THE INCREMENT:   3 TOTAL ITERATIONS, OF WHICH
   0 ARE SEVERE DISCONTINUITY ITERATIONS AND  3 ARE EQUILIBRIUM ITERATIONS.

 TIME INCREMENT COMPLETED   1.00    ,  FRACTION OF STEP COMPLETED  0.900    
 STEP TIME COMPLETED        9.00    ,  TOTAL TIME COMPLETED         29.0    


  INCREMENT    10 STARTS. ATTEMPT NUMBER  1, TIME INCREMENT   1.00    

  NUMBER OF EQUATIONS =     13054     NUMBER OF RHS =    1
  NUMBER OF FLOATING PT. OPERATIONS =  6.82E+08

     CHECK POINT   START OF SOLVER    

     CHECK POINT  END OF SOLVER       

       ELAPSED USER TIME (SEC)      =  0.16000    
       ELAPSED SYSTEM TIME (SEC)    =  2.00000E-02
       ELAPSED TOTAL CPU TIME (SEC) =  0.18000    
       ELAPSED WALLCLOCK TIME (SEC) =          0

               CONVERGENCE CHECKS FOR EQUILIBRIUM ITERATION     1


 AVERAGE FORCE                      1.128E-05   TIME AVG. FORCE       9.954E-06
 LARGEST RESIDUAL FORCE             3.852E-05   AT NODE       1825   DOF  3
   INSTANCE: SE_SKIN-1                                                                       
 LARGEST INCREMENT OF DISP.          3.24       AT NODE       4216   DOF  2
   INSTANCE: SE_SKIN-1                                                                       
 LARGEST CORRECTION TO DISP.       -6.191E-04   AT NODE        449   DOF  2
   INSTANCE: ES_FACE-1                                                                       
          FORCE     EQUILIBRIUM NOT ACHIEVED WITHIN TOLERANCE.

 AVERAGE MOMENT                      0.00       TIME AVG. MOMENT      1.000E-02
 LARGEST RESIDUAL MOMENT             0.00       AT NODE          4   DOF  5
   INSTANCE:                                                                                 
 LARGEST INCREMENT OF ROTATION     -7.562E-03   AT NODE          4   DOF  4
   INSTANCE: {assembly node}                                                                 
 LARGEST CORRECTION TO ROTATION     8.674E-19   AT NODE          4   DOF  4
   INSTANCE: {assembly node}                                                                 
          THERE IS ZERO MOMENT    EVERYWHERE

 AVERAGE CAV. VOL.                  1.333E-02   TIME AVG. CAV. VOL.   1.333E-02
 ALL CAV. VOL. RESIDUALS ARE ZERO
 LARGEST INCREMENT OF H.PRESS.      5.000E-06   AT NODE          3   DOF  8
   INSTANCE: {assembly node}                                                                 
 LARGEST CORRECTION TO H.PRESS.    -2.711E-20   AT NODE          3   DOF  8
   INSTANCE: {assembly node}                                                                 
          THE CAV. VOL. EQUILIBRIUM RESPONSE WAS LINEAR IN THIS INCREMENT

  NUMBER OF EQUATIONS =     13054     NUMBER OF RHS =    1
  NUMBER OF FLOATING PT. OPERATIONS =  6.82E+08

     CHECK POINT   START OF SOLVER    

     CHECK POINT  END OF SOLVER       

       ELAPSED USER TIME (SEC)      =  0.16000    
       ELAPSED SYSTEM TIME (SEC)    =  1.00000E-02
       ELAPSED TOTAL CPU TIME (SEC) =  0.17000    
       ELAPSED WALLCLOCK TIME (SEC) =          0

               CONVERGENCE CHECKS FOR EQUILIBRIUM ITERATION     2


 AVERAGE FORCE                      1.123E-05   TIME AVG. FORCE       9.949E-06
 LARGEST RESIDUAL FORCE             8.285E-08   AT NODE       3208   DOF  3
   INSTANCE: SE_SKIN-1                                                                       
 LARGEST INCREMENT OF DISP.          3.24       AT NODE       4217   DOF  2
   INSTANCE: SE_SKIN-1                                                                       
 LARGEST CORRECTION TO DISP.       -5.939E-04   AT NODE       1944   DOF  2
   INSTANCE: SE_SKIN-1                                                                       
          FORCE     EQUILIBRIUM NOT ACHIEVED WITHIN TOLERANCE.

 AVERAGE MOMENT                      0.00       TIME AVG. MOMENT      1.000E-02
 LARGEST RESIDUAL MOMENT             0.00       AT NODE          4   DOF  5
   INSTANCE:                                                                                 
 LARGEST INCREMENT OF ROTATION     -7.562E-03   AT NODE          4   DOF  4
   INSTANCE: {assembly node}                                                                 
 LARGEST CORRECTION TO ROTATION     1.738E-42   AT NODE          4   DOF  4
   INSTANCE: {assembly node}                                                                 
          THERE IS ZERO MOMENT    EVERYWHERE

 AVERAGE CAV. VOL.                  1.333E-02   TIME AVG. CAV. VOL.   1.333E-02
 ALL CAV. VOL. RESIDUALS ARE ZERO
 LARGEST INCREMENT OF H.PRESS.      5.000E-06   AT NODE          3   DOF  8
   INSTANCE: {assembly node}                                                                 
 LARGEST CORRECTION TO H.PRESS.     2.244E-35   AT NODE          3   DOF  8
   INSTANCE: {assembly node}                                                                 
          THE CAV. VOL. EQUILIBRIUM EQUATIONS HAVE CONVERGED

  NUMBER OF EQUATIONS =     13054     NUMBER OF RHS =    1
  NUMBER OF FLOATING PT. OPERATIONS =  6.82E+08

     CHECK POINT   START OF SOLVER    

     CHECK POINT  END OF SOLVER       

       ELAPSED USER TIME (SEC)      =  0.15000    
       ELAPSED SYSTEM TIME (SEC)    =  1.00000E-02
       ELAPSED TOTAL CPU TIME (SEC) =  0.16000    
       ELAPSED WALLCLOCK TIME (SEC) =          0

               CONVERGENCE CHECKS FOR EQUILIBRIUM ITERATION     3


 AVERAGE FORCE                      1.123E-05   TIME AVG. FORCE       9.949E-06
 LARGEST RESIDUAL FORCE            -9.698E-10   AT NODE       3206   DOF  2
   INSTANCE: SE_SKIN-1                                                                       
 LARGEST INCREMENT OF DISP.          3.24       AT NODE       4217   DOF  2
   INSTANCE: SE_SKIN-1                                                                       
 LARGEST CORRECTION TO DISP.        1.928E-05   AT NODE        351   DOF  3
   INSTANCE: SE_SKIN-1                                                                       
          THE FORCE     EQUILIBRIUM EQUATIONS HAVE CONVERGED

 AVERAGE MOMENT                      0.00       TIME AVG. MOMENT      1.000E-02
 LARGEST RESIDUAL MOMENT             0.00       AT NODE          4   DOF  5
   INSTANCE:                                                                                 
 LARGEST INCREMENT OF ROTATION     -7.562E-03   AT NODE          4   DOF  4
   INSTANCE: {assembly node}                                                                 
 LARGEST CORRECTION TO ROTATION    -2.148E-48   AT NODE          4   DOF  4
   INSTANCE: {assembly node}                                                                 
          THERE IS ZERO MOMENT    EVERYWHERE

 AVERAGE CAV. VOL.                  1.333E-02   TIME AVG. CAV. VOL.   1.333E-02
 ALL CAV. VOL. RESIDUALS ARE ZERO
 LARGEST INCREMENT OF H.PRESS.      5.000E-06   AT NODE          3   DOF  8
   INSTANCE: {assembly node}                                                                 
 LARGEST CORRECTION TO H.PRESS.     2.244E-35   AT NODE          3   DOF  8
   INSTANCE: {assembly node}                                                                 
          THE CAV. VOL. EQUILIBRIUM EQUATIONS HAVE CONVERGED

 ITERATION SUMMARY FOR THE INCREMENT:   3 TOTAL ITERATIONS, OF WHICH
   0 ARE SEVERE DISCONTINUITY ITERATIONS AND  3 ARE EQUILIBRIUM ITERATIONS.

 TIME INCREMENT COMPLETED   1.00    ,  FRACTION OF STEP COMPLETED   1.00    
 STEP TIME COMPLETED        10.0    ,  TOTAL TIME COMPLETED         30.0    


          THE ANALYSIS HAS BEEN COMPLETED



     ANALYSIS SUMMARY:
     TOTAL OF         30  INCREMENTS
                       0  CUTBACKS IN AUTOMATIC INCREMENTATION
                      87  ITERATIONS INCLUDING CONTACT ITERATIONS IF PRESENT
                      87  PASSES THROUGH THE EQUATION SOLVER OF WHICH 
                      87  INVOLVE MATRIX DECOMPOSITION, INCLUDING
                       0  DECOMPOSITION(S) OF THE MASS MATRIX
                       1  REORDERING OF EQUATIONS TO MINIMIZE WAVEFRONT
                       0  ADDITIONAL RESIDUAL EVALUATIONS FOR LINE SEARCHES
                       0  ADDITIONAL OPERATOR EVALUATIONS FOR LINE SEARCHES
                    1398  WARNING MESSAGES DURING USER INPUT PROCESSING
                     221  WARNING MESSAGES DURING ANALYSIS
                     200  ANALYSIS WARNINGS ARE NUMERICAL PROBLEM MESSAGES
                      21  ANALYSIS WARNINGS ARE NEGATIVE EIGENVALUE MESSAGES
                       0  ERROR MESSAGES



     JOB TIME SUMMARY
       USER TIME (SEC)      =   73.550    
       SYSTEM TIME (SEC)    =   3.2200    
       TOTAL CPU TIME (SEC) =   76.770    
       WALLCLOCK TIME (SEC) =         84
