 Abaqus/Standard 2020                  DATE 15-Dec-2021 TIME 20:28:42
 SUMMARY OF JOB INFORMATION:
 STEP  INC ATT SEVERE EQUIL TOTAL  TOTAL      STEP       INC OF       DOF    IF
               DISCON ITERS ITERS  TIME/    TIME/LPF    TIME/LPF    MONITOR RIKS
               ITERS               FREQ
   1     1   1     0     6     6  1.00       1.00       1.000     
   1     2   1     0     5     5  2.00       2.00       1.000     
   1     3   1     0     4     4  3.00       3.00       1.000     
   1     4   1     0     3     3  4.00       4.00       1.000     
   1     5   1     0     3     3  5.00       5.00       1.000     
   1     6   1     0     3     3  6.00       6.00       1.000     
   1     7   1     0     4     4  7.00       7.00       1.000     
   1     8   1     0     4     4  8.00       8.00       1.000     
   1     9   1     0     4     4  9.00       9.00       1.000     
   1    10   1     0     4     4  10.0       10.0       1.000     
   2     1   1     0     3     3  11.0       1.00       1.000     
   2     2   1     0     1     1  12.0       2.00       1.000     
   2     3   1     0     1     1  13.0       3.00       1.000     
   2     4   1     0     1     1  14.0       4.00       1.000     
   2     5   1     0     2     2  15.0       5.00       1.000     
   2     6   1     0     2     2  16.0       6.00       1.000     
   2     7   1     0     2     2  17.0       7.00       1.000     
   2     8   1     0     2     2  18.0       8.00       1.000     
   2     9   1     0     2     2  19.0       9.00       1.000     
   2    10   1     0     2     2  20.0       10.0       1.000     
   3     1   1     0     2     2  21.0       1.00       1.000     
   3     2   1     0     3     3  22.0       2.00       1.000     
   3     3   1     0     3     3  23.0       3.00       1.000     
   3     4   1     0     3     3  24.0       4.00       1.000     
   3     5   1     0     3     3  25.0       5.00       1.000     
   3     6   1     0     3     3  26.0       6.00       1.000     
   3     7   1     0     3     3  27.0       7.00       1.000     
   3     8   1     0     3     3  28.0       8.00       1.000     
   3     9   1     0     3     3  29.0       9.00       1.000     
   3    10   1     0     3     3  30.0       10.0       1.000     
                          
 THE ANALYSIS HAS COMPLETED SUCCESSFULLY
