 Abaqus/Standard 2020                  DATE 15-Dec-2021 TIME 20:28:09
 SUMMARY OF JOB INFORMATION:
 STEP  INC ATT SEVERE EQUIL TOTAL  TOTAL      STEP       INC OF       DOF    IF
               DISCON ITERS ITERS  TIME/    TIME/LPF    TIME/LPF    MONITOR RIKS
               ITERS               FREQ
   1     1   1     0     4     4  0.00100    0.00100    0.001000  
   1     2   1     0     1     1  0.00200    0.00200    0.001000  
   1     3   1     0     1     1  0.00350    0.00350    0.001500  
   1     4   1     0     2     2  0.00575    0.00575    0.002250  
   1     5   1     0     2     2  0.00913    0.00913    0.003375  
   1     6   1     0     2     2  0.0142     0.0142     0.005063  
   1     7   1     0     2     2  0.0218     0.0218     0.007594  
   1     8   1     0     2     2  0.0332     0.0332     0.01139   
   1     9   1     0     2     2  0.0503     0.0503     0.01709   
   1    10   1     0     2     2  0.0759     0.0759     0.02563   
   1    11   1     0     2     2  0.100      0.100      0.02411   
                          
 THE ANALYSIS HAS COMPLETED SUCCESSFULLY
