 Abaqus/Standard 2020                  DATE 15-Dec-2021 TIME 20:26:57
 SUMMARY OF JOB INFORMATION:
 STEP  INC ATT SEVERE EQUIL TOTAL  TOTAL      STEP       INC OF       DOF    IF
               DISCON ITERS ITERS  TIME/    TIME/LPF    TIME/LPF    MONITOR RIKS
               ITERS               FREQ
   1     1   1     0     4     4  0.100      0.100      0.1000    
   1     2   1     0     3     3  0.200      0.200      0.1000    
   1     3   1     0     4     4  0.350      0.350      0.1500    
   1     4   1     0     4     4  0.575      0.575      0.2250    
   1     5   1     0     4     4  0.913      0.913      0.3375    
   1     6   1     0     4     4  1.42       1.42       0.5063    
   1     7   1     0     5     5  2.18       2.18       0.7594    
   1     8   1     0     6     6  2.94       2.94       0.7594    
   1     9   1     0     6     6  3.70       3.70       0.7594    
   1    10   1     0     7     7  4.46       4.46       0.7594    
   1    11   1     0     7     7  5.22       5.22       0.7594    
   1    12   1     0     8     8  5.98       5.98       0.7594    
   1    13   1     0     9     9  6.73       6.73       0.7594    
   1    14   1     0    10    10  7.49       7.49       0.7594    
   1    15   1U    0     9     9  7.49       7.49       0.7594    
   1    15   2U    0     9     9  7.49       7.49       0.3797    
   1    15   3     0     8     8  7.68       7.68       0.1898    
   1    16   1     0     6     6  7.87       7.87       0.1898    
   1    17   1     0     6     6  8.06       8.06       0.1898    
   1    18   1     0     6     6  8.25       8.25       0.1898    
   1    19   1     0     6     6  8.44       8.44       0.1898    
   1    20   1     0     6     6  8.63       8.63       0.1898    
   1    21   1     0     8     8  8.82       8.82       0.1898    
   1    22   1     0     8     8  9.01       9.01       0.1898    
   1    23   1     0     8     8  9.20       9.20       0.1898    
   1    24   1     0     8     8  9.39       9.39       0.1898    
   1    25   1     0     8     8  9.58       9.58       0.1898    
   1    26   1U    0     9     9  9.58       9.58       0.1898    
   1    26   2     0     6     6  9.68       9.68       0.09492   
   1    27   1     0     7     7  9.77       9.77       0.09492   
   1    28   1     0     6     6  9.87       9.87       0.09492   
   1    29   1     0     8     8  9.96       9.96       0.09492   
   1    30   1     0     6     6  10.0       10.0       0.03828   
                          
 THE ANALYSIS HAS COMPLETED SUCCESSFULLY
